<nodes>
    <node id="C" x="0" y="0" type="traffic_light"/>
    <node id="N" x="0" y="400" type="traffic_light"/>
    <node id="S" x="0" y="-400" type="traffic_light"/>
    <node id="E" x="400" y="0" type="traffic_light"/>
    <node id="W" x="-400" y="0" type="traffic_light"/>
    <node id="X_NE" x="200" y="200" type="traffic_light"/>
    <node id="NE" x="350" y="350" type="traffic_light"/>
    <node id="Exit_N" x="0" y="800"/>
    <node id="Exit_S" x="0" y="-800"/>
    <node id="Exit_E" x="800" y="0"/>
    <node id="Exit_W" x="-800" y="0"/>
    <node id="Exit_NE" x="600" y="600"/>
</nodes>