<?xml version="1.0" encoding="UTF-8"?>

<!-- generated on 2026-01-22 18:21:15 by Eclipse SUMO netconvert Version 1.24.0
<netconvertConfiguration xmlns:xsi="http://www.w3.org/2001/XMLSchema-instance" xsi:noNamespaceSchemaLocation="http://sumo.dlr.de/xsd/netconvertConfiguration.xsd">

    <input>
        <node-files value="network.nod.xml"/>
        <edge-files value="network.edg.xml"/>
    </input>

    <output>
        <output-file value="network_fixed.net.xml"/>
    </output>

    <tls_building>
        <tls.cycle.time value="90"/>
        <tls.default-type value="static"/>
    </tls_building>

</netconvertConfiguration>
-->

<net version="1.20" junctionCornerDetail="5" limitTurnSpeed="5.50" xmlns:xsi="http://www.w3.org/2001/XMLSchema-instance" xsi:noNamespaceSchemaLocation="http://sumo.dlr.de/xsd/net_file.xsd">

    <location netOffset="800.00,800.00" convBoundary="0.00,0.00,1600.00,1600.00" origBoundary="-800.00,-800.00,800.00,800.00" projParameter="!"/>

    <edge id=":C_0" function="internal">
        <lane id=":C_0_0" index="0" speed="7.65" length="12.89" shape="798.40,811.73 798.05,807.30 797.00,804.13 795.25,802.23 792.80,801.60"/>
    </edge>
    <edge id=":C_1" function="internal">
        <lane id=":C_1_0" index="0" speed="13.89" length="18.93" shape="798.40,811.73 798.40,792.80"/>
    </edge>
    <edge id=":C_2" function="internal">
        <lane id=":C_2_0" index="0" speed="9.73" length="5.01" shape="798.40,811.73 799.11,806.76"/>
    </edge>
    <edge id=":C_3" function="internal">
        <lane id=":C_3_0" index="0" speed="7.42" length="6.00" shape="798.40,811.73 799.07,805.76"/>
    </edge>
    <edge id=":C_4" function="internal">
        <lane id=":C_4_0" index="0" speed="3.65" length="1.44" shape="798.40,811.73 799.20,810.53"/>
    </edge>
    <edge id=":C_25" function="internal">
        <lane id=":C_25_0" index="0" speed="9.73" length="16.48" shape="799.11,806.76 799.23,805.90 801.73,801.73 805.90,799.23 811.73,798.40"/>
    </edge>
    <edge id=":C_26" function="internal">
        <lane id=":C_26_0" index="0" speed="7.42" length="13.30" shape="799.07,805.76 799.09,805.59 801.16,802.79 804.60,803.31 809.42,807.16"/>
    </edge>
    <edge id=":C_27" function="internal">
        <lane id=":C_27_0" index="0" speed="3.65" length="3.23" shape="799.20,810.53 800.00,810.13 800.80,810.53 801.60,811.73"/>
    </edge>
    <edge id=":C_5" function="internal">
        <lane id=":C_5_0" index="0" speed="5.47" length="9.74" shape="807.16,809.42 804.73,807.48 802.99,807.22 801.95,808.63 801.60,811.73"/>
    </edge>
    <edge id=":C_6" function="internal">
        <lane id=":C_6_0" index="0" speed="13.42" length="16.74" shape="807.16,809.42 803.33,806.00 799.66,803.56 796.15,802.09 792.80,801.60"/>
    </edge>
    <edge id=":C_7" function="internal">
        <lane id=":C_7_0" index="0" speed="13.89" length="19.24" shape="807.16,809.42 803.33,805.10 800.59,800.89 798.95,796.79 798.40,792.80"/>
    </edge>
    <edge id=":C_8" function="internal">
        <lane id=":C_8_0" index="0" speed="7.42" length="19.31" shape="807.16,809.42 803.31,804.60 802.79,801.16 805.59,799.09 811.73,798.40"/>
    </edge>
    <edge id=":C_9" function="internal">
        <lane id=":C_9_0" index="0" speed="3.65" length="1.44" shape="807.16,809.42 806.88,808.01"/>
    </edge>
    <edge id=":C_28" function="internal">
        <lane id=":C_28_0" index="0" speed="3.65" length="3.23" shape="806.88,808.01 807.16,807.16 808.01,806.88 809.42,807.16"/>
    </edge>
    <edge id=":C_10" function="internal">
        <lane id=":C_10_0" index="0" speed="5.47" length="9.74" shape="811.73,801.60 808.63,801.95 807.22,802.99 807.48,804.73 809.42,807.16"/>
    </edge>
    <edge id=":C_11" function="internal">
        <lane id=":C_11_0" index="0" speed="8.54" length="16.33" shape="811.73,801.60 807.30,802.23 804.13,804.13 802.23,807.30 801.60,811.73"/>
    </edge>
    <edge id=":C_12" function="internal">
        <lane id=":C_12_0" index="0" speed="13.89" length="18.93" shape="811.73,801.60 792.80,801.60"/>
    </edge>
    <edge id=":C_13" function="internal">
        <lane id=":C_13_0" index="0" speed="8.71" length="6.18" shape="811.73,801.60 807.40,800.84 805.78,800.10"/>
    </edge>
    <edge id=":C_14" function="internal">
        <lane id=":C_14_0" index="0" speed="3.65" length="1.44" shape="811.73,801.60 810.53,800.80"/>
    </edge>
    <edge id=":C_29" function="internal">
        <lane id=":C_29_0" index="0" speed="8.71" length="10.84" shape="805.78,800.10 803.07,798.85 799.73,796.03 798.40,792.80"/>
    </edge>
    <edge id=":C_30" function="internal">
        <lane id=":C_30_0" index="0" speed="3.65" length="3.23" shape="810.53,800.80 810.13,800.00 810.53,799.20 811.73,798.40"/>
    </edge>
    <edge id=":C_15" function="internal">
        <lane id=":C_15_0" index="0" speed="7.65" length="12.89" shape="801.60,792.80 802.23,795.25 804.13,797.00 807.30,798.05 811.73,798.40"/>
    </edge>
    <edge id=":C_16" function="internal">
        <lane id=":C_16_0" index="0" speed="13.42" length="16.74" shape="801.60,792.80 802.09,796.15 803.56,799.66 806.00,803.33 809.42,807.16"/>
    </edge>
    <edge id=":C_17" function="internal">
        <lane id=":C_17_0" index="0" speed="13.89" length="18.93" shape="801.60,792.80 801.60,811.73"/>
    </edge>
    <edge id=":C_18" function="internal">
        <lane id=":C_18_0" index="0" speed="8.00" length="4.07" shape="801.60,792.80 801.05,796.65 800.96,796.80"/>
    </edge>
    <edge id=":C_19" function="internal">
        <lane id=":C_19_0" index="0" speed="3.65" length="1.44" shape="801.60,792.80 800.80,794.00"/>
    </edge>
    <edge id=":C_31" function="internal">
        <lane id=":C_31_0" index="0" speed="8.00" length="10.13" shape="800.96,796.80 799.40,799.40 796.65,801.05 792.80,801.60"/>
    </edge>
    <edge id=":C_32" function="internal">
        <lane id=":C_32_0" index="0" speed="3.65" length="3.23" shape="800.80,794.00 800.00,794.40 799.20,794.00 798.40,792.80"/>
    </edge>
    <edge id=":C_20" function="internal">
        <lane id=":C_20_0" index="0" speed="6.51" length="9.03" shape="792.80,798.40 795.25,798.05 797.00,797.00 798.05,795.25 798.40,792.80"/>
    </edge>
    <edge id=":C_21" function="internal">
        <lane id=":C_21_0" index="0" speed="13.89" length="18.93" shape="792.80,798.40 811.73,798.40"/>
    </edge>
    <edge id=":C_22" function="internal">
        <lane id=":C_22_0" index="0" speed="13.89" length="4.39" shape="792.80,798.40 796.79,798.95 797.12,799.08"/>
    </edge>
    <edge id=":C_23" function="internal">
        <lane id=":C_23_0" index="0" speed="8.71" length="2.01" shape="792.80,798.40 794.66,799.17"/>
    </edge>
    <edge id=":C_24" function="internal">
        <lane id=":C_24_0" index="0" speed="3.65" length="1.44" shape="792.80,798.40 794.00,799.20"/>
    </edge>
    <edge id=":C_33" function="internal">
        <lane id=":C_33_0" index="0" speed="13.89" length="14.85" shape="797.12,799.08 800.89,800.59 805.10,803.33 809.42,807.16"/>
    </edge>
    <edge id=":C_34" function="internal">
        <lane id=":C_34_0" index="0" speed="8.71" length="15.01" shape="794.66,799.17 796.03,799.73 798.85,803.07 800.84,807.40 801.60,811.73"/>
    </edge>
    <edge id=":C_35" function="internal">
        <lane id=":C_35_0" index="0" speed="3.65" length="3.23" shape="794.00,799.20 794.40,800.00 794.00,800.80 792.80,801.60"/>
    </edge>
    <edge id=":E_0" function="internal">
        <lane id=":E_0_0" index="0" speed="12.73" length="15.02" shape="1205.33,801.60 1202.80,802.09 1199.87,803.56 1196.55,806.00 1192.84,809.42"/>
    </edge>
    <edge id=":E_1" function="internal">
        <lane id=":E_1_0" index="0" speed="12.73" length="15.02" shape="1205.33,801.60 1202.80,802.09 1199.87,803.56 1196.55,806.00 1192.84,809.42"/>
    </edge>
    <edge id=":E_2" function="internal">
        <lane id=":E_2_0" index="0" speed="13.89" length="17.05" shape="1205.33,801.60 1188.27,801.60"/>
    </edge>
    <edge id=":E_3" function="internal">
        <lane id=":E_3_0" index="0" speed="13.89" length="17.05" shape="1205.33,801.60 1188.27,801.60"/>
    </edge>
    <edge id=":E_4" function="internal">
        <lane id=":E_4_0" index="0" speed="13.73" length="3.53" shape="1205.33,801.60 1202.16,801.05 1201.87,800.92"/>
    </edge>
    <edge id=":E_5" function="internal">
        <lane id=":E_5_0" index="0" speed="3.65" length="1.44" shape="1205.33,801.60 1204.13,800.80"/>
    </edge>
    <edge id=":E_36" function="internal">
        <lane id=":E_36_0" index="0" speed="13.73" length="13.98" shape="1201.87,800.92 1198.64,799.41 1194.78,796.67 1190.58,792.84"/>
    </edge>
    <edge id=":E_37" function="internal">
        <lane id=":E_37_0" index="0" speed="3.65" length="3.23" shape="1204.13,800.80 1203.73,800.00 1204.13,799.20 1205.33,798.40"/>
    </edge>
    <edge id=":E_6" function="internal">
        <lane id=":E_6_0" index="0" speed="12.73" length="15.02" shape="1192.84,790.58 1196.55,794.00 1199.87,796.44 1202.80,797.91 1205.33,798.40"/>
    </edge>
    <edge id=":E_7" function="internal">
        <lane id=":E_7_0" index="0" speed="9.73" length="21.49" shape="1192.84,790.58 1196.37,795.29 1197.55,800.00 1196.37,804.71 1192.84,809.42"/>
    </edge>
    <edge id=":E_8" function="internal">
        <lane id=":E_8_0" index="0" speed="9.73" length="21.49" shape="1192.84,790.58 1196.37,795.29 1197.55,800.00 1196.37,804.71 1192.84,809.42"/>
    </edge>
    <edge id=":E_9" function="internal">
        <lane id=":E_9_0" index="0" speed="6.34" length="2.38" shape="1192.84,790.58 1193.64,792.82"/>
    </edge>
    <edge id=":E_10" function="internal">
        <lane id=":E_10_0" index="0" speed="6.34" length="2.38" shape="1192.84,790.58 1193.64,792.82"/>
    </edge>
    <edge id=":E_11" function="internal">
        <lane id=":E_11_0" index="0" speed="3.65" length="1.44" shape="1192.84,790.58 1193.12,791.99"/>
    </edge>
    <edge id=":E_38" function="internal">
        <lane id=":E_38_0" index="0" speed="6.34" length="11.27" shape="1193.64,792.82 1193.87,793.49 1193.10,797.14 1191.06,800.27 1188.27,801.60"/>
    </edge>
    <edge id=":E_39" function="internal">
        <lane id=":E_39_0" index="0" speed="6.34" length="11.27" shape="1193.64,792.82 1193.87,793.49 1193.10,797.14 1191.06,800.27 1188.27,801.60"/>
    </edge>
    <edge id=":E_40" function="internal">
        <lane id=":E_40_0" index="0" speed="3.65" length="3.23" shape="1193.12,791.99 1192.84,792.84 1191.99,793.12 1190.58,792.84"/>
    </edge>
    <edge id=":E_12" function="internal">
        <lane id=":E_12_0" index="0" speed="5.47" length="9.74" shape="1188.27,798.40 1191.37,798.05 1192.78,797.01 1192.52,795.27 1190.58,792.84"/>
    </edge>
    <edge id=":E_13" function="internal">
        <lane id=":E_13_0" index="0" speed="13.89" length="17.05" shape="1188.27,798.40 1205.33,798.40"/>
    </edge>
    <edge id=":E_14" function="internal">
        <lane id=":E_14_0" index="0" speed="6.34" length="3.41" shape="1188.27,798.40 1191.06,799.73 1191.24,800.00"/>
    </edge>
    <edge id=":E_15" function="internal">
        <lane id=":E_15_0" index="0" speed="6.34" length="6.00" shape="1188.27,798.40 1191.06,799.73 1192.65,802.17"/>
    </edge>
    <edge id=":E_16" function="internal">
        <lane id=":E_16_0" index="0" speed="3.24" length="1.60" shape="1188.27,798.40 1188.27,800.00"/>
    </edge>
    <edge id=":E_17" function="internal">
        <lane id=":E_17_0" index="0" speed="3.65" length="1.44" shape="1188.27,798.40 1189.47,799.20"/>
    </edge>
    <edge id=":E_41" function="internal">
        <lane id=":E_41_0" index="0" speed="6.34" length="10.23" shape="1191.24,800.00 1193.10,802.86 1193.87,806.51 1192.84,809.42"/>
    </edge>
    <edge id=":E_42" function="internal">
        <lane id=":E_42_0" index="0" speed="6.34" length="7.64" shape="1192.65,802.17 1193.10,802.86 1193.87,806.51 1192.84,809.42"/>
    </edge>
    <edge id=":E_43" function="internal">
        <lane id=":E_43_0" index="0" speed="3.24" length="1.60" shape="1188.27,800.00 1188.27,801.60"/>
    </edge>
    <edge id=":E_44" function="internal">
        <lane id=":E_44_0" index="0" speed="3.65" length="3.23" shape="1189.47,799.20 1189.87,800.00 1189.47,800.80 1188.27,801.60"/>
    </edge>
    <edge id=":E_18" function="internal">
        <lane id=":E_18_0" index="0" speed="5.47" length="9.74" shape="1188.27,798.40 1191.37,798.05 1192.78,797.01 1192.52,795.27 1190.58,792.84"/>
    </edge>
    <edge id=":E_19" function="internal">
        <lane id=":E_19_0" index="0" speed="13.89" length="17.05" shape="1188.27,798.40 1205.33,798.40"/>
    </edge>
    <edge id=":E_20" function="internal">
        <lane id=":E_20_0" index="0" speed="6.34" length="13.65" shape="1188.27,798.40 1191.06,799.73 1193.10,802.86 1193.87,806.51 1192.84,809.42"/>
    </edge>
    <edge id=":E_21" function="internal">
        <lane id=":E_21_0" index="0" speed="6.34" length="13.65" shape="1188.27,798.40 1191.06,799.73 1193.10,802.86 1193.87,806.51 1192.84,809.42"/>
    </edge>
    <edge id=":E_22" function="internal">
        <lane id=":E_22_0" index="0" speed="3.24" length="3.20" shape="1188.27,798.40 1188.27,801.60"/>
    </edge>
    <edge id=":E_23" function="internal">
        <lane id=":E_23_0" index="0" speed="3.65" length="1.44" shape="1188.27,798.40 1189.47,799.20"/>
    </edge>
    <edge id=":E_45" function="internal">
        <lane id=":E_45_0" index="0" speed="3.65" length="3.23" shape="1189.47,799.20 1189.87,800.00 1189.47,800.80 1188.27,801.60"/>
    </edge>
    <edge id=":E_24" function="internal">
        <lane id=":E_24_0" index="0" speed="5.47" length="9.74" shape="1190.58,807.16 1192.52,804.73 1192.78,802.99 1191.37,801.95 1188.27,801.60"/>
    </edge>
    <edge id=":E_25" function="internal">
        <lane id=":E_25_0" index="0" speed="5.47" length="9.74" shape="1190.58,807.16 1192.52,804.73 1192.78,802.99 1191.37,801.95 1188.27,801.60"/>
    </edge>
    <edge id=":E_26" function="internal">
        <lane id=":E_26_0" index="0" speed="8.54" length="16.33" shape="1190.58,807.16 1193.26,803.58 1194.16,800.00 1193.26,796.42 1190.58,792.84"/>
    </edge>
    <edge id=":E_27" function="internal">
        <lane id=":E_27_0" index="0" speed="13.73" length="3.65" shape="1190.58,807.16 1193.28,804.70"/>
    </edge>
    <edge id=":E_28" function="internal">
        <lane id=":E_28_0" index="0" speed="3.24" length="1.46" shape="1190.58,807.16 1191.61,808.19"/>
    </edge>
    <edge id=":E_29" function="internal">
        <lane id=":E_29_0" index="0" speed="3.65" length="1.30" shape="1190.58,807.16 1191.86,806.90"/>
    </edge>
    <edge id=":E_46" function="internal">
        <lane id=":E_46_0" index="0" speed="13.73" length="13.87" shape="1193.28,804.70 1194.78,803.33 1198.64,800.59 1202.16,798.95 1205.33,798.40"/>
    </edge>
    <edge id=":E_47" function="internal">
        <lane id=":E_47_0" index="0" speed="3.24" length="1.74" shape="1191.61,808.19 1192.84,809.42"/>
    </edge>
    <edge id=":E_48" function="internal">
        <lane id=":E_48_0" index="0" speed="3.65" length="3.37" shape="1191.86,806.90 1191.99,806.88 1192.84,807.16 1193.12,808.01 1192.84,809.42"/>
    </edge>
    <edge id=":E_30" function="internal">
        <lane id=":E_30_0" index="0" speed="5.47" length="9.74" shape="1190.58,807.16 1192.52,804.73 1192.78,802.99 1191.37,801.95 1188.27,801.60"/>
    </edge>
    <edge id=":E_31" function="internal">
        <lane id=":E_31_0" index="0" speed="5.47" length="9.74" shape="1190.58,807.16 1192.52,804.73 1192.78,802.99 1191.37,801.95 1188.27,801.60"/>
    </edge>
    <edge id=":E_32" function="internal">
        <lane id=":E_32_0" index="0" speed="8.54" length="16.33" shape="1190.58,807.16 1193.26,803.58 1194.16,800.00 1193.26,796.42 1190.58,792.84"/>
    </edge>
    <edge id=":E_33" function="internal">
        <lane id=":E_33_0" index="0" speed="13.66" length="17.36" shape="1190.58,807.16 1194.17,804.09 1198.34,801.26 1202.33,799.20 1205.33,798.40"/>
    </edge>
    <edge id=":E_34" function="internal">
        <lane id=":E_34_0" index="0" speed="3.24" length="3.20" shape="1190.58,807.16 1192.84,809.42"/>
    </edge>
    <edge id=":E_35" function="internal">
        <lane id=":E_35_0" index="0" speed="3.65" length="1.44" shape="1190.58,807.16 1191.99,806.88"/>
    </edge>
    <edge id=":E_49" function="internal">
        <lane id=":E_49_0" index="0" speed="3.65" length="3.23" shape="1191.99,806.88 1192.84,807.16 1193.12,808.01 1192.84,809.42"/>
    </edge>
    <edge id=":Exit_E_0" function="internal">
        <lane id=":Exit_E_0_0" index="0" speed="3.65" length="4.67" shape="1600.00,798.40 1601.20,799.20 1601.60,800.00 1601.20,800.80 1600.00,801.60"/>
    </edge>
    <edge id=":Exit_N_0" function="internal">
        <lane id=":Exit_N_0_0" index="0" speed="3.65" length="4.67" shape="801.60,1600.00 800.80,1601.20 800.00,1601.60 799.20,1601.20 798.40,1600.00"/>
    </edge>
    <edge id=":Exit_NE_0" function="internal">
        <lane id=":Exit_NE_0_0" index="0" speed="3.65" length="4.67" shape="1401.13,1398.87 1401.41,1400.28 1401.13,1401.13 1400.28,1401.41 1398.87,1401.13"/>
    </edge>
    <edge id=":Exit_S_0" function="internal">
        <lane id=":Exit_S_0_0" index="0" speed="3.65" length="4.67" shape="798.40,0.00 799.20,-1.20 800.00,-1.60 800.80,-1.20 801.60,0.00"/>
    </edge>
    <edge id=":Exit_W_0" function="internal">
        <lane id=":Exit_W_0_0" index="0" speed="3.65" length="4.67" shape="0.00,801.60 -1.20,800.80 -1.60,800.00 -1.20,799.20 0.00,798.40"/>
    </edge>
    <edge id=":N_0" function="internal">
        <lane id=":N_0_0" index="0" speed="12.73" length="15.02" shape="798.40,1205.33 797.91,1202.80 796.44,1199.87 794.00,1196.55 790.58,1192.84"/>
    </edge>
    <edge id=":N_1" function="internal">
        <lane id=":N_1_0" index="0" speed="13.89" length="17.05" shape="798.40,1205.33 798.40,1188.27"/>
    </edge>
    <edge id=":N_2" function="internal">
        <lane id=":N_2_0" index="0" speed="13.73" length="3.53" shape="798.40,1205.33 798.95,1202.16 799.08,1201.87"/>
    </edge>
    <edge id=":N_3" function="internal">
        <lane id=":N_3_0" index="0" speed="13.66" length="2.83" shape="798.40,1205.33 799.13,1202.59"/>
    </edge>
    <edge id=":N_4" function="internal">
        <lane id=":N_4_0" index="0" speed="3.65" length="1.44" shape="798.40,1205.33 799.20,1204.13"/>
    </edge>
    <edge id=":N_25" function="internal">
        <lane id=":N_25_0" index="0" speed="13.73" length="13.98" shape="799.08,1201.87 800.59,1198.64 803.33,1194.78 807.16,1190.58"/>
    </edge>
    <edge id=":N_26" function="internal">
        <lane id=":N_26_0" index="0" speed="13.66" length="14.52" shape="799.13,1202.59 799.20,1202.33 801.26,1198.34 804.09,1194.17 807.16,1190.58"/>
    </edge>
    <edge id=":N_27" function="internal">
        <lane id=":N_27_0" index="0" speed="3.65" length="3.23" shape="799.20,1204.13 800.00,1203.73 800.80,1204.13 801.60,1205.33"/>
    </edge>
    <edge id=":N_5" function="internal">
        <lane id=":N_5_0" index="0" speed="12.73" length="15.02" shape="809.42,1192.84 806.00,1196.55 803.56,1199.87 802.09,1202.80 801.60,1205.33"/>
    </edge>
    <edge id=":N_6" function="internal">
        <lane id=":N_6_0" index="0" speed="9.73" length="21.49" shape="809.42,1192.84 804.71,1196.37 800.00,1197.55 795.29,1196.37 790.58,1192.84"/>
    </edge>
    <edge id=":N_7" function="internal">
        <lane id=":N_7_0" index="0" speed="6.34" length="2.38" shape="809.42,1192.84 807.18,1193.64"/>
    </edge>
    <edge id=":N_8" function="internal">
        <lane id=":N_8_0" index="0" speed="3.24" length="1.71" shape="809.42,1192.84 808.21,1191.63"/>
    </edge>
    <edge id=":N_9" function="internal">
        <lane id=":N_9_0" index="0" speed="3.65" length="1.44" shape="809.42,1192.84 808.01,1193.12"/>
    </edge>
    <edge id=":N_28" function="internal">
        <lane id=":N_28_0" index="0" speed="6.34" length="11.27" shape="807.18,1193.64 806.51,1193.87 802.86,1193.10 799.73,1191.06 798.40,1188.27"/>
    </edge>
    <edge id=":N_29" function="internal">
        <lane id=":N_29_0" index="0" speed="3.24" length="1.49" shape="808.21,1191.63 807.16,1190.58"/>
    </edge>
    <edge id=":N_30" function="internal">
        <lane id=":N_30_0" index="0" speed="3.65" length="3.23" shape="808.01,1193.12 807.16,1192.84 806.88,1191.99 807.16,1190.58"/>
    </edge>
    <edge id=":N_10" function="internal">
        <lane id=":N_10_0" index="0" speed="12.73" length="15.02" shape="809.42,1192.84 806.00,1196.55 803.56,1199.87 802.09,1202.80 801.60,1205.33"/>
    </edge>
    <edge id=":N_11" function="internal">
        <lane id=":N_11_0" index="0" speed="9.73" length="21.49" shape="809.42,1192.84 804.71,1196.37 800.00,1197.55 795.29,1196.37 790.58,1192.84"/>
    </edge>
    <edge id=":N_12" function="internal">
        <lane id=":N_12_0" index="0" speed="6.34" length="13.65" shape="809.42,1192.84 806.51,1193.87 802.86,1193.10 799.73,1191.06 798.40,1188.27"/>
    </edge>
    <edge id=":N_13" function="internal">
        <lane id=":N_13_0" index="0" speed="3.24" length="3.20" shape="809.42,1192.84 807.16,1190.58"/>
    </edge>
    <edge id=":N_14" function="internal">
        <lane id=":N_14_0" index="0" speed="3.65" length="1.44" shape="809.42,1192.84 808.01,1193.12"/>
    </edge>
    <edge id=":N_31" function="internal">
        <lane id=":N_31_0" index="0" speed="3.65" length="3.23" shape="808.01,1193.12 807.16,1192.84 806.88,1191.99 807.16,1190.58"/>
    </edge>
    <edge id=":N_15" function="internal">
        <lane id=":N_15_0" index="0" speed="5.47" length="9.74" shape="801.60,1188.27 801.95,1191.37 802.99,1192.78 804.73,1192.52 807.16,1190.58"/>
    </edge>
    <edge id=":N_16" function="internal">
        <lane id=":N_16_0" index="0" speed="5.47" length="9.74" shape="801.60,1188.27 801.95,1191.37 802.99,1192.78 804.73,1192.52 807.16,1190.58"/>
    </edge>
    <edge id=":N_17" function="internal">
        <lane id=":N_17_0" index="0" speed="13.89" length="17.05" shape="801.60,1188.27 801.60,1205.33"/>
    </edge>
    <edge id=":N_18" function="internal">
        <lane id=":N_18_0" index="0" speed="7.42" length="6.00" shape="801.60,1188.27 800.93,1194.24"/>
    </edge>
    <edge id=":N_19" function="internal">
        <lane id=":N_19_0" index="0" speed="3.65" length="1.44" shape="801.60,1188.27 800.80,1189.47"/>
    </edge>
    <edge id=":N_32" function="internal">
        <lane id=":N_32_0" index="0" speed="7.42" length="13.30" shape="800.93,1194.24 800.91,1194.41 798.84,1197.21 795.40,1196.69 790.58,1192.84"/>
    </edge>
    <edge id=":N_33" function="internal">
        <lane id=":N_33_0" index="0" speed="3.65" length="3.23" shape="800.80,1189.47 800.00,1189.87 799.20,1189.47 798.40,1188.27"/>
    </edge>
    <edge id=":N_20" function="internal">
        <lane id=":N_20_0" index="0" speed="5.47" length="9.74" shape="792.84,1190.58 795.27,1192.52 797.01,1192.78 798.05,1191.37 798.40,1188.27"/>
    </edge>
    <edge id=":N_21" function="internal">
        <lane id=":N_21_0" index="0" speed="8.54" length="16.33" shape="792.84,1190.58 796.42,1193.26 800.00,1194.16 803.58,1193.26 807.16,1190.58"/>
    </edge>
    <edge id=":N_22" function="internal">
        <lane id=":N_22_0" index="0" speed="8.54" length="16.33" shape="792.84,1190.58 796.42,1193.26 800.00,1194.16 803.58,1193.26 807.16,1190.58"/>
    </edge>
    <edge id=":N_23" function="internal">
        <lane id=":N_23_0" index="0" speed="13.73" length="3.65" shape="792.84,1190.58 795.30,1193.28"/>
    </edge>
    <edge id=":N_24" function="internal">
        <lane id=":N_24_0" index="0" speed="3.65" length="1.30" shape="792.84,1190.58 793.10,1191.86"/>
    </edge>
    <edge id=":N_34" function="internal">
        <lane id=":N_34_0" index="0" speed="13.73" length="13.87" shape="795.30,1193.28 796.67,1194.78 799.41,1198.64 801.05,1202.16 801.60,1205.33"/>
    </edge>
    <edge id=":N_35" function="internal">
        <lane id=":N_35_0" index="0" speed="3.65" length="3.37" shape="793.10,1191.86 793.12,1191.99 792.84,1192.84 791.99,1193.12 790.58,1192.84"/>
    </edge>
    <edge id=":NE_0" function="internal">
        <lane id=":NE_0_0" index="0" speed="13.89" length="0.10" shape="1148.87,1151.13 1148.87,1151.13"/>
    </edge>
    <edge id=":NE_1" function="internal">
        <lane id=":NE_1_0" index="0" speed="13.89" length="0.10" shape="1151.13,1148.87 1151.13,1148.87"/>
    </edge>
    <edge id=":S_0" function="internal">
        <lane id=":S_0_0" index="0" speed="5.47" length="9.74" shape="798.40,411.73 798.05,408.63 797.01,407.22 795.27,407.48 792.84,409.42"/>
    </edge>
    <edge id=":S_1" function="internal">
        <lane id=":S_1_0" index="0" speed="13.89" length="17.05" shape="798.40,411.73 798.40,394.67"/>
    </edge>
    <edge id=":S_2" function="internal">
        <lane id=":S_2_0" index="0" speed="7.42" length="6.00" shape="798.40,411.73 799.07,405.76"/>
    </edge>
    <edge id=":S_3" function="internal">
        <lane id=":S_3_0" index="0" speed="3.65" length="1.44" shape="798.40,411.73 799.20,410.53"/>
    </edge>
    <edge id=":S_16" function="internal">
        <lane id=":S_16_0" index="0" speed="7.42" length="13.30" shape="799.07,405.76 799.09,405.59 801.16,402.79 804.60,403.31 809.42,407.16"/>
    </edge>
    <edge id=":S_17" function="internal">
        <lane id=":S_17_0" index="0" speed="3.65" length="3.23" shape="799.20,410.53 800.00,410.13 800.80,410.53 801.60,411.73"/>
    </edge>
    <edge id=":S_4" function="internal">
        <lane id=":S_4_0" index="0" speed="5.47" length="9.74" shape="807.16,409.42 804.73,407.48 802.99,407.22 801.95,408.63 801.60,411.73"/>
    </edge>
    <edge id=":S_5" function="internal">
        <lane id=":S_5_0" index="0" speed="8.54" length="16.33" shape="807.16,409.42 803.58,406.74 800.00,405.84 796.42,406.74 792.84,409.42"/>
    </edge>
    <edge id=":S_6" function="internal">
        <lane id=":S_6_0" index="0" speed="13.73" length="3.65" shape="807.16,409.42 804.70,406.72"/>
    </edge>
    <edge id=":S_7" function="internal">
        <lane id=":S_7_0" index="0" speed="3.65" length="1.30" shape="807.16,409.42 806.90,408.14"/>
    </edge>
    <edge id=":S_18" function="internal">
        <lane id=":S_18_0" index="0" speed="13.73" length="13.87" shape="804.70,406.72 803.33,405.22 800.59,401.36 798.95,397.84 798.40,394.67"/>
    </edge>
    <edge id=":S_19" function="internal">
        <lane id=":S_19_0" index="0" speed="3.65" length="3.37" shape="806.90,408.14 806.88,408.01 807.16,407.16 808.01,406.88 809.42,407.16"/>
    </edge>
    <edge id=":S_8" function="internal">
        <lane id=":S_8_0" index="0" speed="12.73" length="15.02" shape="801.60,394.67 802.09,397.20 803.56,400.13 806.00,403.45 809.42,407.16"/>
    </edge>
    <edge id=":S_9" function="internal">
        <lane id=":S_9_0" index="0" speed="13.89" length="17.05" shape="801.60,394.67 801.60,411.73"/>
    </edge>
    <edge id=":S_10" function="internal">
        <lane id=":S_10_0" index="0" speed="13.73" length="3.53" shape="801.60,394.67 801.05,397.84 800.92,398.13"/>
    </edge>
    <edge id=":S_11" function="internal">
        <lane id=":S_11_0" index="0" speed="3.65" length="1.44" shape="801.60,394.67 800.80,395.87"/>
    </edge>
    <edge id=":S_20" function="internal">
        <lane id=":S_20_0" index="0" speed="13.73" length="13.98" shape="800.92,398.13 799.41,401.36 796.67,405.22 792.84,409.42"/>
    </edge>
    <edge id=":S_21" function="internal">
        <lane id=":S_21_0" index="0" speed="3.65" length="3.23" shape="800.80,395.87 800.00,396.27 799.20,395.87 798.40,394.67"/>
    </edge>
    <edge id=":S_12" function="internal">
        <lane id=":S_12_0" index="0" speed="12.73" length="15.02" shape="790.58,407.16 794.00,403.45 796.44,400.13 797.91,397.20 798.40,394.67"/>
    </edge>
    <edge id=":S_13" function="internal">
        <lane id=":S_13_0" index="0" speed="9.73" length="21.49" shape="790.58,407.16 795.29,403.63 800.00,402.45 804.71,403.63 809.42,407.16"/>
    </edge>
    <edge id=":S_14" function="internal">
        <lane id=":S_14_0" index="0" speed="7.42" length="9.49" shape="790.58,407.16 795.40,403.31 798.68,402.81"/>
    </edge>
    <edge id=":S_15" function="internal">
        <lane id=":S_15_0" index="0" speed="3.65" length="1.44" shape="790.58,407.16 791.99,406.88"/>
    </edge>
    <edge id=":S_22" function="internal">
        <lane id=":S_22_0" index="0" speed="7.42" length="9.82" shape="798.68,402.81 798.84,402.79 800.91,405.59 801.60,411.73"/>
    </edge>
    <edge id=":S_23" function="internal">
        <lane id=":S_23_0" index="0" speed="3.65" length="3.23" shape="791.99,406.88 792.84,407.16 793.12,408.01 792.84,409.42"/>
    </edge>
    <edge id=":W_0" function="internal">
        <lane id=":W_0_0" index="0" speed="12.73" length="15.02" shape="407.16,809.42 403.45,806.00 400.13,803.56 397.20,802.09 394.67,801.60"/>
    </edge>
    <edge id=":W_1" function="internal">
        <lane id=":W_1_0" index="0" speed="9.73" length="21.49" shape="407.16,809.42 403.63,804.71 402.45,800.00 403.63,795.29 407.16,790.58"/>
    </edge>
    <edge id=":W_2" function="internal">
        <lane id=":W_2_0" index="0" speed="6.34" length="2.38" shape="407.16,809.42 406.36,807.18"/>
    </edge>
    <edge id=":W_3" function="internal">
        <lane id=":W_3_0" index="0" speed="6.34" length="2.38" shape="407.16,809.42 406.36,807.18"/>
    </edge>
    <edge id=":W_4" function="internal">
        <lane id=":W_4_0" index="0" speed="3.65" length="1.44" shape="407.16,809.42 406.88,808.01"/>
    </edge>
    <edge id=":W_25" function="internal">
        <lane id=":W_25_0" index="0" speed="6.34" length="11.27" shape="406.36,807.18 406.13,806.51 406.90,802.86 408.94,799.73 411.73,798.40"/>
    </edge>
    <edge id=":W_26" function="internal">
        <lane id=":W_26_0" index="0" speed="6.34" length="11.27" shape="406.36,807.18 406.13,806.51 406.90,802.86 408.94,799.73 411.73,798.40"/>
    </edge>