<?xml version="1.0" encoding="UTF-8"?>

<!-- generated on 2026-01-22 18:21:16 by Eclipse SUMO duarouter Version 1.24.0
<duarouterConfiguration xmlns:xsi="http://www.w3.org/2001/XMLSchema-instance" xsi:noNamespaceSchemaLocation="http://sumo.dlr.de/xsd/duarouterConfiguration.xsd">

    <input>
        <net-file value="network.net.xml"/>
        <route-files value="temp_trips_typed.xml"/>
    </input>

    <output>
        <output-file value="traffic.rou.xml"/>
    </output>

    <report>
        <no-warnings value="true"/>
        <ignore-errors value="true"/>
    </report>

</duarouterConfiguration>
-->

<routes xmlns:xsi="http://www.w3.org/2001/XMLSchema-instance" xsi:noNamespaceSchemaLocation="http://sumo.dlr.de/xsd/routes_file.xsd">
    <vType id="car" speedFactor="1.00" vClass="passenger" color="yellow"/>
    <vehicle id="0" type="car" depart="0.00">
        <route edges="In_S S2E E2N"/>
    </vehicle>
    <vehicle id="1" type="car" depart="2.00">
        <route edges="In_N N2X X2E Out_E"/>
    </vehicle>
    <vehicle id="2" type="car" depart="4.00">
        <route edges="In_S Out_S"/>
    </vehicle>
    <vehicle id="3" type="car" depart="6.00">
        <route edges="In_W W2E Out_E"/>
    </vehicle>
    <vehicle id="4" type="car" depart="8.00">
        <route edges="In_NE NE2X X2E E2W"/>
    </vehicle>
    <vehicle id="5" type="car" depart="10.00">
        <route edges="In_N N2X X2NE Out_NE"/>
    </vehicle>
    <vType id="emergency" speedFactor="1.30" vClass="emergency" guiShape="emergency" color="red"/>
    <vehicle id="6" type="emergency" depart="12.00">
        <route edges="E2S S2E Out_E"/>
    </vehicle>
    <vehicle id="7" type="car" depart="14.00">
        <route edges="In_S S2C C2X X2NE Out_NE"/>
    </vehicle>
    <vehicle id="8" type="car" depart="16.00">
        <route edges="In_N N2X X2NE Out_NE"/>
    </vehicle>
    <vehicle id="9" type="car" depart="18.00">
        <route edges="In_W W2C C2N"/>
    </vehicle>
    <vehicle id="10" type="car" depart="20.00">
        <route edges="In_W W2S Out_S"/>
    </vehicle>
    <vehicle id="11" type="car" depart="22.00">
        <route edges="In_N N2X X2E Out_E"/>
    </vehicle>
    <vehicle id="12" type="car" depart="24.00">
        <route edges="NE2X X2N Out_N"/>
    </vehicle>
    <vehicle id="13" type="car" depart="26.00">
        <route edges="In_E Out_E"/>
    </vehicle>
    <vehicle id="14" type="car" depart="28.00">
        <route edges="In_W W2S Out_S"/>
    </vehicle>
    <vehicle id="15" type="emergency" depart="30.00">
        <route edges="In_W W2S Out_S"/>
    </vehicle>
    <vehicle id="16" type="car" depart="32.00">
        <route edges="In_NE NE2X X2C C2W W2C"/>
    </vehicle>
    <vehicle id="17" type="car" depart="34.00">
        <route edges="In_N N2X X2NE Out_NE"/>
    </vehicle>
    <vehicle id="18" type="car" depart="36.00">
        <route edges="In_W W2S Out_S"/>
    </vehicle>
    <vehicle id="19" type="car" depart="38.00">
        <route edges="In_W W2C C2X X2NE Out_NE"/>
    </vehicle>
    <vehicle id="20" type="car" depart="40.00">
        <route edges="In_S S2C C2N N2W"/>
    </vehicle>
    <vehicle id="21" type="car" depart="42.00">
        <route edges="In_N Out_N"/>
    </vehicle>
    <vehicle id="22" type="car" depart="44.00">
        <route edges="In_E Out_E"/>
    </vehicle>
    <vehicle id="23" type="car" depart="46.00">
        <route edges="In_E E2N Out_N"/>
    </vehicle>
    <vehicle id="24" type="car" depart="48.00">
        <route edges="In_S S2C C2N Out_N"/>
    </vehicle>
    <vehicle id="25" type="car" depart="50.00">
        <route edges="In_N N2X X2E Out_E"/>
    </vehicle>
    <vehicle id="26" type="car" depart="52.00">
        <route edges="In_N N2W Out_W"/>
    </vehicle>
    <vehicle id="27" type="car" depart="54.00">
        <route edges="In_S Out_S"/>
    </vehicle>
    <vehicle id="28" type="car" depart="56.00">
        <route edges="In_E E2S Out_S"/>
    </vehicle>
    <vehicle id="29" type="emergency" depart="58.00">
        <route edges="In_E E2N Out_N"/>
    </vehicle>
    <vehicle id="30" type="car" depart="60.00">
        <route edges="X2E E2S Out_S"/>
    </vehicle>
    <vehicle id="31" type="car" depart="62.00">
        <route edges="In_NE NE2X X2C C2S Out_S"/>
    </vehicle>
    <vehicle id="32" type="car" depart="64.00">
        <route edges="In_W W2S Out_S"/>
    </vehicle>
    <vehicle id="33" type="car" depart="66.00">
        <route edges="In_N N2E E2W"/>
    </vehicle>
    <vehicle id="34" type="car" depart="68.00">
        <route edges="In_N Out_N"/>
    </vehicle>
    <vehicle id="35" type="car" depart="70.00">
        <route edges="In_E E2W Out_W"/>
    </vehicle>
    <vehicle id="36" type="car" depart="72.00">
        <route edges="In_W W2N Out_N"/>
    </vehicle>
    <vehicle id="37" type="car" depart="74.00">
        <route edges="In_S S2C C2N Out_N"/>
    </vehicle>
    <vehicle id="38" type="car" depart="76.00">
        <route edges="In_W W2C C2X X2NE Out_NE"/>
    </vehicle>
    <vehicle id="39" type="emergency" depart="78.00">
        <route edges="In_N Out_N"/>
    </vehicle>
    <vehicle id="40" type="car" depart="80.00">
        <route edges="In_NE NE2X X2N Out_N"/>
    </vehicle>
    <vehicle id="41" type="car" depart="82.00">
        <route edges="In_S S2W Out_W"/>
    </vehicle>
    <vehicle id="42" type="emergency" depart="84.00">
        <route edges="In_NE NE2X X2E Out_E"/>
    </vehicle>
    <vehicle id="43" type="car" depart="86.00">
        <route edges="X2NE Out_NE"/>
    </vehicle>
    <vehicle id="44" type="car" depart="88.00">
        <route edges="In_E E2N N2X"/>
    </vehicle>
    <vehicle id="45" type="car" depart="90.00">
        <route edges="In_E E2S Out_S"/>
    </vehicle>
    <vehicle id="46" type="car" depart="92.00">
        <route edges="In_W W2C C2X X2NE Out_NE"/>
    </vehicle>
    <vehicle id="47" type="car" depart="94.00">
        <route edges="In_E E2N Out_N"/>
    </vehicle>
    <vehicle id="48" type="car" depart="96.00">
        <route edges="X2N N2X X2NE Out_NE"/>
    </vehicle>
    <vehicle id="49" type="car" depart="98.00">
        <route edges="W2C C2W Out_W"/>
    </vehicle>
    <vehicle id="50" type="car" depart="100.00">
        <route edges="C2W W2S Out_S"/>
    </vehicle>
    <vehicle id="51" type="car" depart="102.00">
        <route edges="In_S S2C C2X X2NE Out_NE"/>
    </vehicle>
    <vehicle id="52" type="car" depart="104.00">
        <route edges="In_N N2C C2S Out_S"/>
    </vehicle>
    <vehicle id="53" type="car" depart="106.00">
        <route edges="In_E E2X X2NE Out_NE"/>
    </vehicle>
    <vehicle id="54" type="car" depart="108.00">
        <route edges="In_NE NE2X X2C C2W Out_W"/>
    </vehicle>
    <vehicle id="55" type="car" depart="110.00">
        <route edges="In_W W2N Out_N"/>
    </vehicle>
    <vehicle id="56" type="car" depart="112.00">
        <route edges="In_NE NE2X X2E Out_E"/>
    </vehicle>
    <vehicle id="57" type="car" depart="114.00">
        <route edges="In_W Out_W"/>
    </vehicle>
    <vehicle id="58" type="car" depart="116.00">
        <route edges="In_N N2C C2S Out_S"/>
    </vehicle>
    <vehicle id="59" type="car" depart="118.00">
        <route edges="In_S S2E Out_E"/>
    </vehicle>
    <vehicle id="60" type="car" depart="120.00">
        <route edges="In_W W2C C2X X2NE Out_NE"/>
    </vehicle>
    <vehicle id="61" type="car" depart="122.00">
        <route edges="In_W W2C C2X X2NE Out_NE"/>
    </vehicle>
    <vehicle id="62" type="car" depart="124.00">
        <route edges="C2E E2N Out_N"/>
    </vehicle>
    <vehicle id="63" type="car" depart="126.00">
        <route edges="E2C C2W Out_W"/>
    </vehicle>
    <vehicle id="64" type="car" depart="128.00">
        <route edges="In_W Out_W"/>
    </vehicle>
    <vehicle id="65" type="emergency" depart="130.00">
        <route edges="In_N N2X X2E Out_E"/>
    </vehicle>
    <vehicle id="66" type="car" depart="132.00">
        <route edges="In_W Out_W"/>
    </vehicle>
    <vehicle id="67" type="car" depart="134.00">
        <route edges="In_E E2X X2NE Out_NE"/>
    </vehicle>
    <vehicle id="68" type="emergency" depart="136.00">
        <route edges="In_E E2S Out_S"/>
    </vehicle>
    <vehicle id="69" type="car" depart="138.00">
        <route edges="In_W W2E Out_E"/>
    </vehicle>
    <vehicle id="70" type="car" depart="140.00">
        <route edges="In_NE NE2X X2NE Out_NE"/>
    </vehicle>
    <vehicle id="71" type="car" depart="142.00">
        <route edges="In_N N2W Out_W"/>
    </vehicle>
    <vehicle id="72" type="car" depart="144.00">
        <route edges="In_NE NE2X X2E Out_E"/>
    </vehicle>
    <vehicle id="73" type="car" depart="146.00">
        <route edges="In_NE NE2X X2C C2S Out_S"/>
    </vehicle>
    <vehicle id="74" type="car" depart="148.00">
        <route edges="In_E E2N Out_N"/>
    </vehicle>
    <vehicle id="75" type="car" depart="150.00">
        <route edges="X2N N2C C2S Out_S"/>
    </vehicle>
    <vehicle id="76" type="car" depart="152.00">
        <route edges="In_NE NE2X X2NE Out_NE"/>
    </vehicle>
    <vehicle id="77" type="car" depart="154.00">
        <route edges="In_E Out_E"/>
    </vehicle>
    <vehicle id="78" type="car" depart="156.00">
        <route edges="In_N N2X X2NE Out_NE"/>
    </vehicle>
    <vehicle id="79" type="car" depart="158.00">
        <route edges="In_N N2X X2E Out_E"/>
    </vehicle>
    <vehicle id="80" type="car" depart="160.00">
        <route edges="In_E E2S Out_S"/>
    </vehicle>
    <vehicle id="81" type="car" depart="162.00">
        <route edges="In_N N2W Out_W"/>
    </vehicle>
    <vehicle id="82" type="car" depart="164.00">
        <route edges="In_W W2E Out_E"/>
    </vehicle>
    <vehicle id="83" type="car" depart="166.00">
        <route edges="In_N N2C C2S Out_S"/>
    </vehicle>
    <vehicle id="84" type="car" depart="168.00">
        <route edges="In_E Out_E"/>
    </vehicle>
    <vehicle id="85" type="car" depart="170.00">
        <route edges="In_W W2C C2X X2NE Out_NE"/>
    </vehicle>
    <vehicle id="86" type="car" depart="172.00">
        <route edges="In_NE NE2X X2C C2W Out_W"/>
    </vehicle>
    <vehicle id="87" type="car" depart="174.00">
        <route edges="In_W W2E Out_E"/>
    </vehicle>
    <vehicle id="88" type="car" depart="176.00">
        <route edges="In_E E2X X2NE Out_NE"/>
    </vehicle>
    <vehicle id="89" type="car" depart="178.00">
        <route edges="In_NE NE2X X2NE Out_NE"/>
    </vehicle>
    <vehicle id="90" type="car" depart="180.00">
        <route edges="In_S Out_S"/>
    </vehicle>
    <vehicle id="91" type="car" depart="182.00">
        <route edges="W2S S2E Out_E"/>
    </vehicle>
    <vehicle id="92" type="car" depart="184.00">
        <route edges="In_NE NE2X X2N Out_N"/>
    </vehicle>
    <vehicle id="93" type="car" depart="186.00">
        <route edges="In_W W2N Out_N"/>
    </vehicle>
    <vehicle id="94" type="car" depart="188.00">
        <route edges="In_E E2X X2NE Out_NE"/>
    </vehicle>
    <vehicle id="95" type="car" depart="190.00">
        <route edges="In_NE NE2X X2N Out_N"/>
    </vehicle>
    <vehicle id="96" type="car" depart="192.00">
        <route edges="In_N N2W Out_W"/>
    </vehicle>
    <vehicle id="97" type="car" depart="194.00">
        <route edges="In_NE NE2X X2C C2W Out_W"/>
    </vehicle>
    <vehicle id="98" type="car" depart="196.00">
        <route edges="In_NE NE2X X2N N2X"/>
    </vehicle>
    <vehicle id="99" type="car" depart="198.00">
        <route edges="X2NE Out_NE In_NE NE2X X2C C2W Out_W"/>
    </vehicle>
    <vehicle id="100" type="car" depart="200.00">
        <route edges="S2W Out_W"/>
    </vehicle>
    <vehicle id="101" type="car" depart="202.00">
        <route edges="In_W W2E Out_E"/>
    </vehicle>
    <vehicle id="102" type="car" depart="204.00">
        <route edges="In_NE NE2X X2E Out_E"/>
    </vehicle>
    <vehicle id="103" type="car" depart="206.00">
        <route edges="In_NE NE2X X2E Out_E"/>
    </vehicle>
    <vehicle id="104" type="emergency" depart="208.00">
        <route edges="In_N N2W W2S"/>
    </vehicle>
    <vehicle id="105" type="car" depart="210.00">
        <route edges="In_N N2W Out_W"/>
    </vehicle>
    <vehicle id="106" type="car" depart="212.00">
        <route edges="In_NE NE2X X2NE Out_NE"/>
    </vehicle>
    <vehicle id="107" type="car" depart="214.00">
        <route edges="NE2X X2N"/>
    </vehicle>
    <vehicle id="108" type="car" depart="216.00">
        <route edges="In_NE NE2X X2C C2S Out_S"/>
    </vehicle>
    <vehicle id="109" type="car" depart="218.00">
        <route edges="In_E E2N Out_N"/>
    </vehicle>
    <vehicle id="110" type="car" depart="220.00">
        <route edges="S2W W2C C2X X2NE Out_NE"/>
    </vehicle>
    <vehicle id="111" type="car" depart="222.00">
        <route edges="In_NE NE2X X2C C2S Out_S"/>
    </vehicle>
    <vehicle id="112" type="car" depart="224.00">
        <route edges="In_E E2X X2NE Out_NE"/>
    </vehicle>
    <vehicle id="113" type="car" depart="226.00">
        <route edges="In_NE NE2X X2C C2W Out_W"/>
    </vehicle>
    <vehicle id="114" type="emergency" depart="228.00">
        <route edges="In_E E2S S2C"/>
    </vehicle>
    <vehicle id="115" type="car" depart="230.00">
        <route edges="In_E Out_E"/>
    </vehicle>
    <vehicle id="116" type="car" depart="232.00">
        <route edges="In_S Out_S"/>
    </vehicle>
    <vehicle id="117" type="car" depart="234.00">
        <route edges="In_N N2X X2E Out_E"/>
    </vehicle>
    <vehicle id="118" type="car" depart="236.00">
        <route edges="In_W W2N Out_N"/>
    </vehicle>
    <vehicle id="119" type="car" depart="238.00">
        <route edges="In_S Out_S"/>
    </vehicle>
    <vehicle id="120" type="car" depart="240.00">
        <route edges="In_NE NE2X X2NE Out_NE"/>
    </vehicle>
    <vehicle id="121" type="car" depart="242.00">
        <route edges="In_NE NE2X X2C C2W Out_W"/>
    </vehicle>
    <vehicle id="122" type="car" depart="244.00">
        <route edges="In_E E2S Out_S"/>
    </vehicle>
    <vehicle id="123" type="car" depart="246.00">
        <route edges="In_N Out_N"/>
    </vehicle>
    <vehicle id="124" type="car" depart="248.00">
        <route edges="In_S S2C C2N Out_N"/>
    </vehicle>
    <vehicle id="125" type="car" depart="250.00">
        <route edges="In_N N2C C2S Out_S"/>
    </vehicle>
    <vehicle id="126" type="car" depart="252.00">
        <route edges="In_E E2X X2NE Out_NE"/>
    </vehicle>
    <vehicle id="127" type="car" depart="254.00">
        <route edges="X2NE Out_NE In_NE NE2X X2N"/>
    </vehicle>
    <vehicle id="128" type="car" depart="256.00">
        <route edges="In_E Out_E"/>
    </vehicle>
    <vehicle id="129" type="car" depart="258.00">
        <route edges="In_N N2W Out_W"/>
    </vehicle>
    <vehicle id="130" type="car" depart="260.00">
        <route edges="In_W Out_W"/>
    </vehicle>
    <vehicle id="131" type="car" depart="262.00">
        <route edges="In_N N2X X2E Out_E"/>
    </vehicle>
    <vehicle id="132" type="car" depart="264.00">
        <route edges="In_W W2S Out_S"/>
    </vehicle>
    <vehicle id="133" type="car" depart="266.00">
        <route edges="In_S S2C C2X X2C"/>
    </vehicle>
    <vehicle id="134" type="car" depart="268.00">
        <route edges="In_S S2C C2S"/>
    </vehicle>
    <vehicle id="135" type="car" depart="270.00">
        <route edges="In_W W2N Out_N"/>
    </vehicle>
    <vehicle id="136" type="car" depart="272.00">
        <route edges="In_S S2W Out_W"/>
    </vehicle>
    <vehicle id="137" type="car" depart="274.00">
        <route edges="In_E Out_E"/>
    </vehicle>
    <vehicle id="138" type="car" depart="276.00">
        <route edges="In_E E2X X2NE Out_NE"/>
    </vehicle>
    <vehicle id="139" type="car" depart="278.00">
        <route edges="In_N N2C C2S Out_S"/>
    </vehicle>
    <vehicle id="140" type="car" depart="280.00">
        <route edges="In_S S2E Out_E"/>
    </vehicle>
    <vehicle id="141" type="car" depart="282.00">
        <route edges="In_S S2C C2N Out_N"/>
    </vehicle>
    <vehicle id="142" type="car" depart="284.00">
        <route edges="In_NE NE2X X2C C2W Out_W"/>
    </vehicle>
    <vehicle id="143" type="car" depart="286.00">
        <route edges="In_W W2E Out_E"/>
    </vehicle>
    <vehicle id="144" type="car" depart="288.00">
        <route edges="In_NE NE2X X2N Out_N"/>
    </vehicle>
    <vehicle id="145" type="car" depart="290.00">
        <route edges="C2E E2S Out_S"/>
    </vehicle>
    <vehicle id="146" type="car" depart="292.00">
        <route edges="In_S S2C C2N Out_N"/>
    </vehicle>
    <vehicle id="147" type="car" depart="294.00">
        <route edges="In_S S2C C2X X2NE Out_NE"/>
    </vehicle>
    <vehicle id="148" type="car" depart="296.00">
        <route edges="In_NE NE2X X2C C2S"/>
    </vehicle>
    <vehicle id="149" type="car" depart="298.00">
        <route edges="In_E E2W Out_W"/>
    </vehicle>
    <vehicle id="150" type="car" depart="300.00">
        <route edges="In_W W2C C2X X2NE Out_NE"/>
    </vehicle>
    <vehicle id="151" type="car" depart="302.00">
        <route edges="In_W W2C C2X X2NE Out_NE"/>
    </vehicle>
    <vehicle id="152" type="car" depart="304.00">
        <route edges="In_E Out_E"/>
    </vehicle>
    <vehicle id="153" type="car" depart="306.00">
        <route edges="In_N N2W Out_W"/>
    </vehicle>
    <vehicle id="154" type="car" depart="308.00">
        <route edges="In_W Out_W"/>
    </vehicle>
    <vehicle id="155" type="car" depart="310.00">
        <route edges="In_W W2E Out_E"/>
    </vehicle>
    <vehicle id="156" type="car" depart="312.00">
        <route edges="In_N N2X X2E Out_E"/>
    </vehicle>
    <vehicle id="157" type="car" depart="314.00">
        <route edges="In_W Out_W"/>
    </vehicle>
    <vehicle id="158" type="car" depart="316.00">
        <route edges="In_NE NE2X X2C C2S Out_S"/>
    </vehicle>
    <vehicle id="159" type="car" depart="318.00">
        <route edges="In_E E2W Out_W"/>
    </vehicle>
    <vehicle id="160" type="car" depart="320.00">
        <route edges="In_W W2E"/>
    </vehicle>
    <vehicle id="161" type="car" depart="322.00">
        <route edges="In_W Out_W"/>
    </vehicle>
    <vehicle id="162" type="car" depart="324.00">
        <route edges="E2N N2C C2S Out_S"/>
    </vehicle>
    <vehicle id="163" type="car" depart="326.00">
        <route edges="In_N N2W Out_W"/>
    </vehicle>
    <vehicle id="164" type="car" depart="328.00">
        <route edges="In_W Out_W"/>
    </vehicle>
    <vehicle id="165" type="car" depart="330.00">
        <route edges="In_W W2N Out_N"/>
    </vehicle>
    <vehicle id="166" type="car" depart="332.00">
        <route edges="In_W W2E Out_E"/>
    </vehicle>
    <vehicle id="167" type="car" depart="334.00">
        <route edges="In_W Out_W"/>
    </vehicle>
    <vehicle id="168" type="car" depart="336.00">
        <route edges="In_N N2W Out_W"/>
    </vehicle>
    <vehicle id="169" type="car" depart="338.00">
        <route edges="In_NE NE2X X2N Out_N"/>
    </vehicle>
    <vehicle id="170" type="car" depart="340.00">
        <route edges="In_W W2E Out_E"/>
    </vehicle>
    <vehicle id="171" type="car" depart="342.00">
        <route edges="E2N N2X X2E Out_E"/>
    </vehicle>
    <vehicle id="172" type="emergency" depart="344.00">
        <route edges="In_N N2W Out_W"/>
    </vehicle>
    <vehicle id="173" type="car" depart="346.00">
        <route edges="S2E E2N Out_N"/>
    </vehicle>
    <vehicle id="174" type="car" depart="348.00">
        <route edges="In_S S2C C2N Out_N"/>
    </vehicle>
    <vehicle id="175" type="car" depart="350.00">
        <route edges="W2N N2X X2NE Out_NE"/>
    </vehicle>
    <vehicle id="176" type="car" depart="352.00">
        <route edges="In_W W2E Out_E"/>
    </vehicle>
    <vehicle id="177" type="car" depart="354.00">
        <route edges="S2W W2E Out_E"/>
    </vehicle>
    <vehicle id="178" type="car" depart="356.00">
        <route edges="S2C C2N Out_N"/>
    </vehicle>
    <vehicle id="179" type="car" depart="358.00">
        <route edges="In_E E2X X2NE Out_NE"/>
    </vehicle>
    <vehicle id="180" type="emergency" depart="360.00">
        <route edges="In_S S2C C2N Out_N"/>
    </vehicle>
    <vehicle id="181" type="car" depart="362.00">
        <route edges="In_S S2C C2X X2NE Out_NE"/>
    </vehicle>
    <vehicle id="182" type="car" depart="364.00">
        <route edges="In_N N2X X2NE Out_NE"/>
    </vehicle>
    <vehicle id="183" type="car" depart="366.00">
        <route edges="In_N N2C C2S Out_S"/>
    </vehicle>
    <vehicle id="184" type="car" depart="368.00">
        <route edges="C2E E2W Out_W"/>
    </vehicle>
    <vehicle id="185" type="car" depart="370.00">
        <route edges="In_NE NE2X X2C C2S Out_S"/>
    </vehicle>
    <vehicle id="186" type="car" depart="372.00">
        <route edges="In_S Out_S"/>
    </vehicle>
    <vehicle id="187" type="car" depart="374.00">
        <route edges="In_N N2X X2E Out_E"/>
    </vehicle>
    <vehicle id="188" type="car" depart="376.00">
        <route edges="In_S S2C C2N Out_N"/>
    </vehicle>
    <vehicle id="189" type="car" depart="378.00">
        <route edges="In_N N2W Out_W"/>
    </vehicle>
    <vehicle id="190" type="car" depart="380.00">
        <route edges="In_S S2C C2N Out_N"/>
    </vehicle>
    <vehicle id="191" type="car" depart="382.00">
        <route edges="In_N Out_N"/>
    </vehicle>
    <vehicle id="192" type="car" depart="384.00">
        <route edges="In_NE NE2X X2N Out_N"/>
    </vehicle>
    <vehicle id="193" type="car" depart="386.00">
        <route edges="In_E E2X X2NE Out_NE"/>
    </vehicle>
    <vehicle id="194" type="car" depart="388.00">
        <route edges="In_W W2S Out_S"/>
    </vehicle>
    <vehicle id="195" type="car" depart="390.00">
        <route edges="In_W W2S Out_S"/>
    </vehicle>
    <vehicle id="196" type="car" depart="392.00">
        <route edges="In_N N2X X2NE Out_NE"/>
    </vehicle>
    <vehicle id="197" type="car" depart="394.00">
        <route edges="C2E E2N Out_N"/>
    </vehicle>
    <vehicle id="198" type="car" depart="396.00">
        <route edges="In_NE NE2X X2NE Out_NE"/>
    </vehicle>
    <vehicle id="199" type="emergency" depart="398.00">
        <route edges="In_S S2C C2X X2NE Out_NE"/>
    </vehicle>
    <vehicle id="200" type="car" depart="400.00">
        <route edges="In_NE NE2X X2E Out_E"/>
    </vehicle>
    <vehicle id="201" type="car" depart="402.00">
        <route edges="In_NE NE2X X2C C2W Out_W"/>
    </vehicle>
    <vehicle id="202" type="car" depart="404.00">
        <route edges="In_W W2E Out_E"/>
    </vehicle>
    <vehicle id="203" type="car" depart="406.00">
        <route edges="In_E E2X X2NE Out_NE"/>
    </vehicle>
    <vehicle id="204" type="car" depart="408.00">
        <route edges="In_S S2C C2N Out_N"/>
    </vehicle>
    <vehicle id="205" type="car" depart="410.00">
        <route edges="In_W W2S Out_S"/>
    </vehicle>
    <vehicle id="206" type="car" depart="412.00">
        <route edges="In_S S2E Out_E"/>
    </vehicle>
    <vehicle id="207" type="car" depart="414.00">
        <route edges="In_E E2N"/>
    </vehicle>
    <vehicle id="208" type="car" depart="416.00">
        <route edges="In_N N2X X2NE Out_NE"/>
    </vehicle>
    <vehicle id="209" type="car" depart="418.00">
        <route edges="In_W W2E Out_E"/>
    </vehicle>
    <vehicle id="210" type="car" depart="420.00">
        <route edges="In_NE NE2X X2C C2S Out_S"/>
    </vehicle>
    <vehicle id="211" type="emergency" depart="422.00">
        <route edges="In_E E2S Out_S"/>
    </vehicle>
    <vehicle id="212" type="car" depart="424.00">
        <route edges="In_NE NE2X X2N Out_N"/>
    </vehicle>
    <vehicle id="213" type="car" depart="426.00">
        <route edges="In_S S2C C2N"/>
    </vehicle>
    <vehicle id="214" type="car" depart="428.00">
        <route edges="In_S Out_S"/>
    </vehicle>
    <vehicle id="215" type="car" depart="430.00">
        <route edges="In_E E2X X2NE Out_NE"/>
    </vehicle>
    <vehicle id="216" type="car" depart="432.00">
        <route edges="In_E E2W Out_W"/>
    </vehicle>
    <vehicle id="217" type="car" depart="434.00">
        <route edges="In_NE NE2X X2N N2X"/>
    </vehicle>
    <vehicle id="218" type="car" depart="436.00">
        <route edges="In_N N2W Out_W"/>
    </vehicle>
    <vehicle id="219" type="car" depart="438.00">
        <route edges="In_NE NE2X X2C C2W Out_W"/>
    </vehicle>
    <vehicle id="220" type="car" depart="440.00">
        <route edges="In_S S2C C2X X2C"/>
    </vehicle>
    <vehicle id="221" type="car" depart="442.00">
        <route edges="In_S S2W Out_W"/>
    </vehicle>
    <vehicle id="222" type="car" depart="444.00">
        <route edges="In_W W2S Out_S"/>
    </vehicle>
    <vehicle id="223" type="car" depart="446.00">
        <route edges="In_S S2C C2X X2NE Out_NE"/>
    </vehicle>
    <vehicle id="224" type="emergency" depart="448.00">
        <route edges="In_W W2C C2X X2NE Out_NE"/>
    </vehicle>
    <vehicle id="225" type="emergency" depart="450.00">
        <route edges="In_W W2S Out_S"/>
    </vehicle>
    <vehicle id="226" type="car" depart="452.00">
        <route edges="In_NE NE2X X2N Out_N"/>
    </vehicle>
    <vehicle id="227" type="car" depart="454.00">
        <route edges="In_N N2C C2S Out_S"/>
    </vehicle>
    <vehicle id="228" type="car" depart="456.00">
        <route edges="In_W W2C C2X X2NE Out_NE"/>
    </vehicle>
    <vehicle id="229" type="car" depart="458.00">
        <route edges="In_S S2C C2N Out_N"/>
    </vehicle>
    <vehicle id="230" type="car" depart="460.00">
        <route edges="In_E E2N Out_N"/>
    </vehicle>
    <vehicle id="231" type="car" depart="462.00">
        <route edges="In_N Out_N"/>
    </vehicle>
    <vehicle id="232" type="car" depart="464.00">
        <route edges="In_NE NE2X X2E Out_E"/>
    </vehicle>
    <vehicle id="233" type="car" depart="466.00">
        <route edges="In_N N2C C2S Out_S"/>
    </vehicle>
    <vehicle id="234" type="car" depart="468.00">
        <route edges="In_S S2E Out_E"/>
    </vehicle>
    <vehicle id="235" type="car" depart="470.00">
        <route edges="In_NE NE2X X2NE Out_NE"/>
    </vehicle>
    <vehicle id="236" type="car" depart="472.00">
        <route edges="In_NE NE2X X2E Out_E"/>
    </vehicle>
    <vehicle id="237" type="car" depart="474.00">
        <route edges="In_NE NE2X X2C C2W Out_W"/>
    </vehicle>
    <vehicle id="238" type="emergency" depart="476.00">
        <route edges="In_S Out_S"/>
    </vehicle>
    <vehicle id="239" type="car" depart="478.00">
        <route edges="In_W W2S Out_S"/>
    </vehicle>
    <vehicle id="240" type="emergency" depart="480.00">
        <route edges="In_N N2C C2N"/>
    </vehicle>
    <vehicle id="241" type="car" depart="482.00">
        <route edges="In_N N2C C2S Out_S"/>
    </vehicle>
    <vehicle id="242" type="car" depart="484.00">
        <route edges="In_W Out_W"/>
    </vehicle>
    <vehicle id="243" type="car" depart="486.00">
        <route edges="In_NE NE2X X2C C2S Out_S"/>
    </vehicle>
    <vehicle id="244" type="car" depart="488.00">
        <route edges="In_NE NE2X X2C C2S Out_S"/>
    </vehicle>
    <vehicle id="245" type="car" depart="490.00">
        <route edges="In_N N2X X2E Out_E"/>
    </vehicle>
    <vehicle id="246" type="car" depart="492.00">
        <route edges="In_NE NE2X X2E E2W"/>
    </vehicle>
    <vehicle id="247" type="car" depart="494.00">
        <route edges="In_N N2C C2S Out_S"/>
    </vehicle>
    <vehicle id="248" type="car" depart="496.00">
        <route edges="In_NE NE2X X2E Out_E"/>
    </vehicle>
    <vehicle id="249" type="car" depart="498.00">
        <route edges="In_NE NE2X X2E Out_E"/>
    </vehicle>
    <vehicle id="250" type="car" depart="500.00">
        <route edges="In_S S2E E2S"/>
    </vehicle>
    <vehicle id="251" type="car" depart="502.00">
        <route edges="In_N N2X X2NE Out_NE"/>
    </vehicle>
    <vehicle id="252" type="car" depart="504.00">
        <route edges="E2S Out_S"/>
    </vehicle>
    <vehicle id="253" type="emergency" depart="506.00">
        <route edges="In_E E2X X2NE Out_NE"/>
    </vehicle>
    <vehicle id="254" type="car" depart="508.00">
        <route edges="In_E E2N Out_N"/>
    </vehicle>
    <vehicle id="255" type="car" depart="510.00">
        <route edges="In_E E2N Out_N"/>
    </vehicle>
    <vehicle id="256" type="car" depart="512.00">
        <route edges="In_W W2N Out_N"/>
    </vehicle>
    <vehicle id="257" type="emergency" depart="514.00">
        <route edges="In_S S2W Out_W"/>
    </vehicle>
    <vehicle id="258" type="emergency" depart="516.00">
        <route edges="In_N N2X X2E Out_E"/>
    </vehicle>
    <vehicle id="259" type="car" depart="518.00">
        <route edges="E2C C2X X2NE Out_NE"/>
    </vehicle>
    <vehicle id="260" type="car" depart="520.00">
        <route edges="X2NE Out_NE In_NE NE2X X2N Out_N"/>
    </vehicle>
    <vehicle id="261" type="car" depart="522.00">
        <route edges="In_S S2W Out_W"/>
    </vehicle>
    <vehicle id="262" type="car" depart="524.00">
        <route edges="In_S Out_S"/>
    </vehicle>
    <vehicle id="263" type="car" depart="526.00">
        <route edges="N2W W2E Out_E"/>
    </vehicle>
    <vehicle id="264" type="car" depart="528.00">
        <route edges="E2C C2E Out_E"/>
    </vehicle>
    <vehicle id="265" type="car" depart="530.00">
        <route edges="In_E E2S Out_S"/>
    </vehicle>
    <vehicle id="266" type="car" depart="532.00">
        <route edges="In_NE NE2X X2E Out_E"/>
    </vehicle>
    <vehicle id="267" type="car" depart="534.00">
        <route edges="In_S Out_S"/>
    </vehicle>
    <vehicle id="268" type="car" depart="536.00">
        <route edges="In_E E2S Out_S"/>
    </vehicle>
    <vehicle id="269" type="car" depart="538.00">
        <route edges="In_S S2E Out_E"/>
    </vehicle>
    <vehicle id="270" type="car" depart="540.00">
        <route edges="In_W W2S S2E"/>