<?xml version='1.0' encoding='utf-8'?>
<net xmlns:xsi="http://www.w3.org/2001/XMLSchema-instance" version="1.20" junctionCornerDetail="5" lefthand="true" limitTurnSpeed="5.50" avoidOverlap="0" xsi:noNamespaceSchemaLocation="http://sumo.dlr.de/xsd/net_file.xsd">

    <location netOffset="-8128373.21,-2159232.62" convBoundary="170.07,1308.26,566.81,1704.68" origBoundary="73.018419,19.036491,73.031056,19.052282" projParameter="+proj=merc +a=6378137 +b=6378137 +lat_ts=0.0 +lon_0=0.0 +x_0=0.0 +y_0=0 +k=1.0 +units=m +nadgrids=@null +wktext +no_defs" />

    <type id="highway.residential" priority="3" numLanes="1" speed="13.89" disallow="tram rail_urban rail rail_electric rail_fast ship container cable_car subway aircraft wheelchair scooter drone" oneway="0" />
    <type id="highway.tertiary" priority="10" numLanes="1" speed="22.22" disallow="tram rail_urban rail rail_electric rail_fast ship container cable_car subway aircraft wheelchair scooter drone" oneway="0" />

    <edge id=":10737737615_0" function="internal">
        <lane id=":10737737615_0_0" index="0" disallow="tram rail_urban rail rail_electric rail_fast ship container cable_car subway aircraft wheelchair scooter drone" speed="3.65" length="4.67" shape="282.85,1541.36 284.11,1540.65 284.57,1539.88 284.23,1539.05 283.09,1538.16" />
    </edge>
    <edge id=":10941396748_0" function="internal">
        <lane id=":10941396748_0_0" index="0" disallow="tram rail_urban rail rail_electric rail_fast ship container cable_car subway aircraft wheelchair scooter drone" speed="3.65" length="4.67" shape="199.69,1494.84 198.53,1495.69 198.16,1496.51 198.60,1497.29 199.83,1498.04" />
    </edge>
    <edge id=":2245082547_0" function="internal">
        <lane id=":2245082547_0_0" index="0" disallow="tram rail_urban rail rail_electric rail_fast ship container cable_car subway aircraft wheelchair scooter drone" speed="3.65" length="4.67" shape="382.97,1326.74 382.67,1325.33 382.07,1324.66 381.18,1324.74 379.99,1325.56" />
    </edge>
    <edge id=":2245082550_0" function="internal">
        <lane id=":2245082550_0_0" index="0" disallow="tram rail_urban rail rail_electric rail_fast ship container cable_car subway aircraft wheelchair scooter drone" speed="3.65" length="4.67" shape="568.04,1309.28 568.19,1307.84 567.83,1307.03 566.96,1306.83 565.58,1307.24" />
    </edge>
    <edge id=":2245082593_0" function="internal">
        <lane id=":2245082593_0_0" index="0" disallow="tram rail_urban rail rail_electric rail_fast ship container cable_car subway aircraft wheelchair scooter drone" speed="3.65" length="4.67" shape="214.24,1348.70 213.21,1347.70 212.34,1347.48 211.64,1348.04 211.12,1349.38" />
    </edge>
    <edge id=":2245082596_0" function="internal">
        <lane id=":2245082596_0_0" index="0" disallow="tram rail_urban rail rail_electric rail_fast ship container cable_car subway aircraft wheelchair scooter drone" speed="13.89" length="15.34" shape="367.51,1354.40 361.47,1368.51" />
    </edge>
    <edge id=":2245082596_1" function="internal">
        <lane id=":2245082596_1_0" index="0" disallow="tram rail_urban rail rail_electric rail_fast ship container cable_car subway aircraft wheelchair scooter drone" speed="8.79" length="4.12" shape="367.51,1354.40 366.45,1357.92 366.50,1358.37" />
    </edge>
    <edge id=":2245082596_2" function="internal">
        <lane id=":2245082596_2_0" index="0" disallow="tram rail_urban rail rail_electric rail_fast ship container cable_car subway aircraft wheelchair scooter drone" speed="3.65" length="1.44" shape="367.51,1354.40 367.69,1355.83" />
    </edge>
    <edge id=":2245082596_9" function="internal">
        <lane id=":2245082596_9_0" index="0" disallow="tram rail_urban rail rail_electric rail_fast ship container cable_car subway aircraft wheelchair scooter drone" speed="8.79" length="10.91" shape="366.50,1358.37 366.82,1361.25 368.61,1364.40 371.84,1367.37" />
    </edge>
    <edge id=":2245082596_10" function="internal">
        <lane id=":2245082596_10_0" index="0" disallow="tram rail_urban rail rail_electric rail_fast ship container cable_car subway aircraft wheelchair scooter drone" speed="3.65" length="3.23" shape="367.69,1355.83 368.24,1356.55 369.13,1356.54 370.38,1355.82" />
    </edge>
    <edge id=":2245082596_3" function="internal">
        <lane id=":2245082596_3_0" index="0" disallow="tram rail_urban rail rail_electric rail_fast ship container cable_car subway aircraft wheelchair scooter drone" speed="7.44" length="10.51" shape="373.73,1364.78 371.38,1362.66 370.04,1360.46 369.70,1358.17 370.38,1355.82" />
    </edge>
    <edge id=":2245082596_4" function="internal">
        <lane id=":2245082596_4_0" index="0" disallow="tram rail_urban rail rail_electric rail_fast ship container cable_car subway aircraft wheelchair scooter drone" speed="7.75" length="15.48" shape="373.73,1364.78 369.94,1362.80 366.63,1362.77 363.81,1364.67 361.47,1368.51" />
    </edge>
    <edge id=":2245082596_5" function="internal">
        <lane id=":2245082596_5_0" index="0" disallow="tram rail_urban rail rail_electric rail_fast ship container cable_car subway aircraft wheelchair scooter drone" speed="3.65" length="1.44" shape="373.73,1364.78 372.29,1364.72" />
    </edge>
    <edge id=":2245082596_11" function="internal">
        <lane id=":2245082596_11_0" index="0" disallow="tram rail_urban rail rail_electric rail_fast ship container cable_car subway aircraft wheelchair scooter drone" speed="3.65" length="3.23" shape="372.29,1364.72 371.49,1365.13 371.34,1366.01 371.84,1367.37" />
    </edge>
    <edge id=":2245082596_6" function="internal">
        <lane id=":2245082596_6_0" index="0" disallow="tram rail_urban rail rail_electric rail_fast ship container cable_car subway aircraft wheelchair scooter drone" speed="6.12" length="9.19" shape="364.54,1369.48 365.92,1367.23 367.59,1366.13 369.57,1366.17 371.84,1367.37" />
    </edge>
    <edge id=":2245082596_7" function="internal">
        <lane id=":2245082596_7_0" index="0" disallow="tram rail_urban rail rail_electric rail_fast ship container cable_car subway aircraft wheelchair scooter drone" speed="13.89" length="14.86" shape="364.54,1369.48 370.38,1355.82" />
    </edge>
    <edge id=":2245082596_8" function="internal">
        <lane id=":2245082596_8_0" index="0" disallow="tram rail_urban rail rail_electric rail_fast ship container cable_car subway aircraft wheelchair scooter drone" speed="3.66" length="1.45" shape="364.54,1369.48 364.14,1368.09" />
    </edge>
    <edge id=":2245082596_12" function="internal">
        <lane id=":2245082596_12_0" index="0" disallow="tram rail_urban rail rail_electric rail_fast ship container cable_car subway aircraft wheelchair scooter drone" speed="3.66" length="3.25" shape="364.14,1368.09 363.49,1367.46 362.60,1367.60 361.47,1368.51" />
    </edge>
    <edge id=":2245082608_0" function="internal">
        <lane id=":2245082608_0_0" index="0" disallow="tram rail_urban rail rail_electric rail_fast ship container cable_car subway aircraft wheelchair scooter drone" speed="22.22" length="15.02" shape="222.65,1385.63 219.12,1371.03" />
    </edge>
    <edge id=":2245082608_1" function="internal">
        <lane id=":2245082608_1_0" index="0" disallow="tram rail_urban rail rail_electric rail_fast ship container cable_car subway aircraft wheelchair scooter drone" speed="7.43" length="4.67" shape="222.65,1385.63 220.88,1381.31" />
    </edge>
    <edge id=":2245082608_2" function="internal">
        <lane id=":2245082608_2_0" index="0" disallow="tram rail_urban rail rail_electric rail_fast ship container cable_car subway aircraft wheelchair scooter drone" speed="3.65" length="1.44" shape="222.65,1385.63 221.57,1384.67" />
    </edge>
    <edge id=":2245082608_9" function="internal">
        <lane id=":2245082608_9_0" index="0" disallow="tram rail_urban rail rail_electric rail_fast ship container cable_car subway aircraft wheelchair scooter drone" speed="7.43" length="11.74" shape="220.88,1381.31 220.81,1381.12 218.23,1379.01 214.90,1379.29 210.83,1381.96" />
    </edge>
    <edge id=":2245082608_10" function="internal">
        <lane id=":2245082608_10_0" index="0" disallow="tram rail_urban rail rail_electric rail_fast ship container cable_car subway aircraft wheelchair scooter drone" speed="3.65" length="3.23" shape="221.57,1384.67 220.70,1384.48 220.02,1385.07 219.55,1386.43" />
    </edge>
    <edge id=":2245082608_3" function="internal">
        <lane id=":2245082608_3_0" index="0" disallow="tram rail_urban rail rail_electric rail_fast ship container cable_car subway aircraft wheelchair scooter drone" speed="5.73" length="9.19" shape="212.94,1384.38 215.21,1382.88 217.07,1382.72 218.52,1383.91 219.55,1386.43" />
    </edge>
    <edge id=":2245082608_4" function="internal">
        <lane id=":2245082608_4_0" index="0" disallow="tram rail_urban rail rail_electric rail_fast ship container cable_car subway aircraft wheelchair scooter drone" speed="10.47" length="15.43" shape="212.94,1384.38 216.19,1381.04 218.30,1377.71 219.28,1374.37 219.12,1371.03" />
    </edge>
    <edge id=":2245082608_5" function="internal">
        <lane id=":2245082608_5_0" index="0" disallow="tram rail_urban rail rail_electric rail_fast ship container cable_car subway aircraft wheelchair scooter drone" speed="3.65" length="1.44" shape="212.94,1384.38 213.31,1382.98" />
    </edge>
    <edge id=":2245082608_11" function="internal">
        <lane id=":2245082608_11_0" index="0" disallow="tram rail_urban rail rail_electric rail_fast ship container cable_car subway aircraft wheelchair scooter drone" speed="3.65" length="3.23" shape="213.31,1382.98 213.09,1382.12 212.26,1381.78 210.83,1381.96" />
    </edge>
    <edge id=":2245082608_6" function="internal">
        <lane id=":2245082608_6_0" index="0" disallow="tram rail_urban rail rail_electric rail_fast ship container cable_car subway aircraft wheelchair scooter drone" speed="9.29" length="12.01" shape="215.99,1371.71 216.06,1374.17 215.23,1376.69 213.48,1379.29 210.83,1381.96" />
    </edge>
    <edge id=":2245082608_7" function="internal">
        <lane id=":2245082608_7_0" index="0" disallow="tram rail_urban rail rail_electric rail_fast ship container cable_car subway aircraft wheelchair scooter drone" speed="22.22" length="15.14" shape="215.99,1371.71 219.55,1386.43" />
    </edge>
    <edge id=":2245082608_8" function="internal">
        <lane id=":2245082608_8_0" index="0" disallow="tram rail_urban rail rail_electric rail_fast ship container cable_car subway aircraft wheelchair scooter drone" speed="3.65" length="1.44" shape="215.99,1371.71 217.03,1372.72" />
    </edge>
    <edge id=":2245082608_12" function="internal">
        <lane id=":2245082608_12_0" index="0" disallow="tram rail_urban rail rail_electric rail_fast ship container cable_car subway aircraft wheelchair scooter drone" speed="3.65" length="3.23" shape="217.03,1372.72 217.89,1372.94 218.59,1372.37 219.12,1371.03" />
    </edge>
    <edge id=":2245082660_0" function="internal">
        <lane id=":2245082660_0_0" index="0" disallow="tram rail_urban rail rail_electric rail_fast ship container cable_car subway aircraft wheelchair scooter drone" speed="6.07" length="8.24" shape="413.45,1400.27 414.69,1398.35 414.97,1396.54 414.30,1394.84 412.66,1393.24" />
    </edge>
    <edge id=":2245082660_1" function="internal">
        <lane id=":2245082660_1_0" index="0" disallow="tram rail_urban rail rail_electric rail_fast ship container cable_car subway aircraft wheelchair scooter drone" speed="3.65" length="4.67" shape="413.45,1400.27 413.63,1398.84 413.30,1398.01 412.43,1397.79 411.04,1398.17" />
    </edge>
    <edge id=":2245082660_2" function="internal">
        <lane id=":2245082660_2_0" index="0" disallow="tram rail_urban rail rail_electric rail_fast ship container cable_car subway aircraft wheelchair scooter drone" speed="3.90" length="2.75" shape="410.78,1395.82 411.32,1396.35 411.55,1396.92 411.45,1397.53 411.04,1398.17" />
    </edge>
    <edge id=":2245082660_3" function="internal">
        <lane id=":2245082660_3_0" index="0" disallow="tram rail_urban rail rail_electric rail_fast ship container cable_car subway aircraft wheelchair scooter drone" speed="3.65" length="4.67" shape="410.78,1395.82 412.22,1395.88 413.01,1395.47 413.16,1394.59 412.66,1393.24" />
    </edge>
    <edge id=":2245082669_0" function="internal">
        <lane id=":2245082669_0_0" index="0" disallow="tram rail_urban rail rail_electric rail_fast ship container cable_car subway aircraft wheelchair scooter drone" speed="7.03" length="9.63" shape="233.20,1402.34 230.46,1402.33 228.31,1401.57 226.75,1400.07 225.78,1397.83" />
    </edge>
    <edge id=":2245082669_1" function="internal">
        <lane id=":2245082669_1_0" index="0" disallow="tram rail_urban rail rail_electric rail_fast ship container cable_car subway aircraft wheelchair scooter drone" speed="7.84" length="14.56" shape="233.20,1402.34 229.29,1403.38 226.78,1405.42 225.66,1408.46 225.94,1412.50" />
    </edge>
    <edge id=":2245082669_2" function="internal">
        <lane id=":2245082669_2_0" index="0" disallow="tram rail_urban rail rail_electric rail_fast ship container cable_car subway aircraft wheelchair scooter drone" speed="3.65" length="1.44" shape="233.20,1402.34 232.10,1403.28" />
    </edge>
    <edge id=":2245082669_9" function="internal">
        <lane id=":2245082669_9_0" index="0" disallow="tram rail_urban rail rail_electric rail_fast ship container cable_car subway aircraft wheelchair scooter drone" speed="3.65" length="3.23" shape="232.10,1403.28 231.80,1404.12 232.29,1404.87 233.57,1405.52" />
    </edge>
    <edge id=":2245082669_3" function="internal">
        <lane id=":2245082669_3_0" index="0" disallow="tram rail_urban rail rail_electric rail_fast ship container cable_car subway aircraft wheelchair scooter drone" speed="6.31" length="9.04" shape="229.07,1411.82 228.89,1409.32 229.59,1407.43 231.15,1406.17 233.57,1405.52" />
    </edge>
    <edge id=":2245082669_4" function="internal">
        <lane id=":2245082669_4_0" index="0" disallow="tram rail_urban rail rail_electric rail_fast ship container cable_car subway aircraft wheelchair scooter drone" speed="22.22" length="14.38" shape="229.07,1411.82 225.78,1397.83" />
    </edge>
    <edge id=":2245082669_5" function="internal">
        <lane id=":2245082669_5_0" index="0" disallow="tram rail_urban rail rail_electric rail_fast ship container cable_car subway aircraft wheelchair scooter drone" speed="3.65" length="1.44" shape="229.07,1411.82 228.03,1410.82" />
    </edge>
    <edge id=":2245082669_10" function="internal">
        <lane id=":2245082669_10_0" index="0" disallow="tram rail_urban rail rail_electric rail_fast ship container cable_car subway aircraft wheelchair scooter drone" speed="3.65" length="3.23" shape="228.03,1410.82 227.16,1410.60 226.47,1411.16 225.94,1412.50" />
    </edge>
    <edge id=":2245082669_6" function="internal">
        <lane id=":2245082669_6_0" index="0" disallow="tram rail_urban rail rail_electric rail_fast ship container cable_car subway aircraft wheelchair scooter drone" speed="22.22" length="14.25" shape="222.68,1398.62 225.94,1412.50" />
    </edge>
    <edge id=":2245082669_7" function="internal">
        <lane id=":2245082669_7_0" index="0" disallow="tram rail_urban rail rail_electric rail_fast ship container cable_car subway aircraft wheelchair scooter drone" speed="8.45" length="3.70" shape="222.68,1398.62 224.12,1402.03" />
    </edge>
    <edge id=":2245082669_8" function="internal">
        <lane id=":2245082669_8_0" index="0" disallow="tram rail_urban rail rail_electric rail_fast ship container cable_car subway aircraft wheelchair scooter drone" speed="3.65" length="1.44" shape="222.68,1398.62 223.75,1399.59" />
    </edge>
    <edge id=":2245082669_11" function="internal">
        <lane id=":2245082669_11_0" index="0" disallow="tram rail_urban rail rail_electric rail_fast ship container cable_car subway aircraft wheelchair scooter drone" speed="8.45" length="10.60" shape="224.12,1402.03 226.42,1404.32 229.57,1405.48 233.57,1405.52" />
    </edge>
    <edge id=":2245082669_12" function="internal">
        <lane id=":2245082669_12_0" index="0" disallow="tram rail_urban rail rail_electric rail_fast ship container cable_car subway aircraft wheelchair scooter drone" speed="3.65" length="3.23" shape="223.75,1399.59 224.63,1399.78 225.30,1399.19 225.78,1397.83" />
    </edge>
    <edge id=":2245082675_0" function="internal">
        <lane id=":2245082675_0_0" index="0" disallow="tram rail_urban rail rail_electric rail_fast ship container cable_car subway aircraft wheelchair scooter drone" speed="3.65" length="4.67" shape="169.51,1407.30 168.67,1408.47 168.57,1409.36 169.23,1409.97 170.63,1410.30" />
    </edge>
    <edge id=":2245082715_0" function="internal">
        <lane id=":2245082715_0_0" index="0" disallow="tram rail_urban rail rail_electric rail_fast ship container cable_car subway aircraft wheelchair scooter drone" speed="6.76" length="9.31" shape="401.57,1408.99 399.70,1410.58 397.70,1411.21 395.57,1410.88 393.31,1409.60" />
    </edge>
    <edge id=":2245082715_1" function="internal">
        <lane id=":2245082715_1_0" index="0" disallow="tram rail_urban rail rail_electric rail_fast ship container cable_car subway aircraft wheelchair scooter drone" speed="22.22" length="14.37" shape="401.57,1408.99 392.27,1419.94" />
    </edge>
    <edge id=":2245082715_2" function="internal">
        <lane id=":2245082715_2_0" index="0" disallow="tram rail_urban rail rail_electric rail_fast ship container cable_car subway aircraft wheelchair scooter drone" speed="3.65" length="1.44" shape="401.57,1408.99 401.39,1410.42" />
    </edge>
    <edge id=":2245082715_9" function="internal">
        <lane id=":2245082715_9_0" index="0" disallow="tram rail_urban rail rail_electric rail_fast ship container cable_car subway aircraft wheelchair scooter drone" speed="3.65" length="3.23" shape="401.39,1410.42 401.73,1411.25 402.59,1411.48 403.98,1411.10" />
    </edge>
    <edge id=":2245082715_3" function="internal">
        <lane id=":2245082715_3_0" index="0" disallow="tram rail_urban rail rail_electric rail_fast ship container cable_car subway aircraft wheelchair scooter drone" speed="22.22" length="14.28" shape="394.73,1421.98 403.98,1411.10" />
    </edge>
    <edge id=":2245082715_4" function="internal">
        <lane id=":2245082715_4_0" index="0" disallow="tram rail_urban rail rail_electric rail_fast ship container cable_car subway aircraft wheelchair scooter drone" speed="7.93" length="3.96" shape="394.73,1421.98 396.80,1418.61" />
    </edge>
    <edge id=":2245082715_5" function="internal">
        <lane id=":2245082715_5_0" index="0" disallow="tram rail_urban rail rail_electric rail_fast ship container cable_car subway aircraft wheelchair scooter drone" speed="3.65" length="1.44" shape="394.73,1421.98 394.88,1420.55" />
    </edge>
    <edge id=":2245082715_10" function="internal">
        <lane id=":2245082715_10_0" index="0" disallow="tram rail_urban rail rail_electric rail_fast ship container cable_car subway aircraft wheelchair scooter drone" speed="7.93" length="10.40" shape="396.80,1418.61 397.25,1415.42 396.09,1412.41 393.31,1409.60" />
    </edge>
    <edge id=":2245082715_11" function="internal">
        <lane id=":2245082715_11_0" index="0" disallow="tram rail_urban rail rail_electric rail_fast ship container cable_car subway aircraft wheelchair scooter drone" speed="3.65" length="3.23" shape="394.88,1420.55 394.52,1419.73 393.65,1419.52 392.27,1419.94" />
    </edge>
    <edge id=":2245082715_6" function="internal">
        <lane id=":2245082715_6_0" index="0" disallow="tram rail_urban rail rail_electric rail_fast ship container cable_car subway aircraft wheelchair scooter drone" speed="6.42" length="9.04" shape="391.37,1412.14 393.12,1413.92 393.85,1415.81 393.57,1417.81 392.27,1419.94" />
    </edge>
    <edge id=":2245082715_7" function="internal">
        <lane id=":2245082715_7_0" index="0" disallow="tram rail_urban rail rail_electric rail_fast ship container cable_car subway aircraft wheelchair scooter drone" speed="8.21" length="14.22" shape="391.37,1412.14 394.80,1414.08 398.04,1414.55 401.10,1413.56 403.98,1411.10" />
    </edge>
    <edge id=":2245082715_8" function="internal">
        <lane id=":2245082715_8_0" index="0" disallow="tram rail_urban rail rail_electric rail_fast ship container cable_car subway aircraft wheelchair scooter drone" speed="3.65" length="1.44" shape="391.37,1412.14 392.81,1412.23" />
    </edge>
    <edge id=":2245082715_12" function="internal">
        <lane id=":2245082715_12_0" index="0" disallow="tram rail_urban rail rail_electric rail_fast ship container cable_car subway aircraft wheelchair scooter drone" speed="3.65" length="3.23" shape="392.81,1412.23 393.62,1411.84 393.78,1410.96 393.31,1409.60" />
    </edge>
    <edge id=":2245082732_0" function="internal">
        <lane id=":2245082732_0_0" index="0" disallow="tram rail_urban rail rail_electric rail_fast ship container cable_car subway aircraft wheelchair scooter drone" speed="6.37" length="9.04" shape="375.16,1440.59 373.31,1442.27 371.39,1442.91 369.41,1442.51 367.37,1441.07" />
    </edge>
    <edge id=":2245082732_1" function="internal">
        <lane id=":2245082732_1_0" index="0" disallow="tram rail_urban rail rail_electric rail_fast ship container cable_car subway aircraft wheelchair scooter drone" speed="22.22" length="14.41" shape="375.16,1440.59 365.98,1451.70" />
    </edge>
    <edge id=":2245082732_2" function="internal">
        <lane id=":2245082732_2_0" index="0" disallow="tram rail_urban rail rail_electric rail_fast ship container cable_car subway aircraft wheelchair scooter drone" speed="3.65" length="1.44" shape="375.16,1440.59 375.01,1442.03" />
    </edge>
    <edge id=":2245082732_9" function="internal">
        <lane id=":2245082732_9_0" index="0" disallow="tram rail_urban rail rail_electric rail_fast ship container cable_car subway aircraft wheelchair scooter drone" speed="3.65" length="3.23" shape="375.01,1442.03 375.37,1442.84 376.24,1443.05 377.62,1442.63" />
    </edge>
    <edge id=":2245082732_3" function="internal">
        <lane id=":2245082732_3_0" index="0" disallow="tram rail_urban rail rail_electric rail_fast ship container cable_car subway aircraft wheelchair scooter drone" speed="22.22" length="14.40" shape="368.45,1453.73 377.62,1442.63" />
    </edge>
    <edge id=":2245082732_4" function="internal">
        <lane id=":2245082732_4_0" index="0" disallow="tram rail_urban rail rail_electric rail_fast ship container cable_car subway aircraft wheelchair scooter drone" speed="8.23" length="3.95" shape="368.45,1453.73 370.40,1450.49 370.43,1450.33" />
    </edge>
    <edge id=":2245082732_5" function="internal">
        <lane id=":2245082732_5_0" index="0" disallow="tram rail_urban rail rail_electric rail_fast ship container cable_car subway aircraft wheelchair scooter drone" speed="3.65" length="1.44" shape="368.45,1453.73 368.59,1452.30" />
    </edge>
    <edge id=":2245082732_10" function="internal">
        <lane id=":2245082732_10_0" index="0" disallow="tram rail_urban rail rail_electric rail_fast ship container cable_car subway aircraft wheelchair scooter drone" speed="8.23" length="10.34" shape="370.43,1450.33 370.88,1447.29 369.86,1444.15 367.37,1441.07" />
    </edge>
    <edge id=":2245082732_11" function="internal">
        <lane id=":2245082732_11_0" index="0" disallow="tram rail_urban rail rail_electric rail_fast ship container cable_car subway aircraft wheelchair scooter drone" speed="3.65" length="3.23" shape="368.59,1452.30 368.23,1451.48 367.36,1451.28 365.98,1451.70" />
    </edge>
    <edge id=":2245082732_6" function="internal">
        <lane id=":2245082732_6_0" index="0" disallow="tram rail_urban rail rail_electric rail_fast ship container cable_car subway aircraft wheelchair scooter drone" speed="6.78" length="9.37" shape="365.17,1443.40 366.83,1445.44 367.52,1447.50 367.24,1449.59 365.98,1451.70" />
    </edge>
    <edge id=":2245082732_7" function="internal">
        <lane id=":2245082732_7_0" index="0" disallow="tram rail_urban rail rail_electric rail_fast ship container cable_car subway aircraft wheelchair scooter drone" speed="7.89" length="14.44" shape="365.17,1443.40 368.44,1445.70 371.60,1446.33 374.66,1445.31 377.62,1442.63" />
    </edge>
    <edge id=":2245082732_8" function="internal">
        <lane id=":2245082732_8_0" index="0" disallow="tram rail_urban rail rail_electric rail_fast ship container cable_car subway aircraft wheelchair scooter drone" speed="3.65" length="1.44" shape="365.17,1443.40 366.59,1443.64" />
    </edge>
    <edge id=":2245082732_12" function="internal">
        <lane id=":2245082732_12_0" index="0" disallow="tram rail_urban rail rail_electric rail_fast ship container cable_car subway aircraft wheelchair scooter drone" speed="3.65" length="3.23" shape="366.59,1443.64 367.43,1443.33 367.69,1442.47 367.37,1441.07" />
    </edge>
    <edge id=":2245082742_0" function="internal">
        <lane id=":2245082742_0_0" index="0" disallow="tram rail_urban rail rail_electric rail_fast ship container cable_car subway aircraft wheelchair scooter drone" speed="22.22" length="13.55" shape="350.59,1470.37 348.31,1473.07 346.14,1475.49 343.88,1477.83 341.36,1480.28" />
    </edge>
    <edge id=":2245082742_1" function="internal">
        <lane id=":2245082742_1_0" index="0" disallow="tram rail_urban rail rail_electric rail_fast ship container cable_car subway aircraft wheelchair scooter drone" speed="8.01" length="3.90" shape="350.59,1470.37 348.62,1473.60 348.60,1473.72" />
    </edge>
    <edge id=":2245082742_2" function="internal">
        <lane id=":2245082742_2_0" index="0" disallow="tram rail_urban rail rail_electric rail_fast ship container cable_car subway aircraft wheelchair scooter drone" speed="3.65" length="1.44" shape="350.59,1470.37 350.44,1471.81" />
    </edge>
    <edge id=":2245082742_9" function="internal">
        <lane id=":2245082742_9_0" index="0" disallow="tram rail_urban rail rail_electric rail_fast ship container cable_car subway aircraft wheelchair scooter drone" speed="8.01" length="9.96" shape="348.60,1473.72 348.12,1476.71 349.11,1479.70 351.57,1482.58" />
    </edge>
    <edge id=":2245082742_10" function="internal">
        <lane id=":2245082742_10_0" index="0" disallow="tram rail_urban rail rail_electric rail_fast ship container cable_car subway aircraft wheelchair scooter drone" speed="3.65" length="3.23" shape="350.44,1471.81 350.81,1472.63 351.68,1472.83 353.06,1472.41" />
    </edge>
    <edge id=":2245082742_3" function="internal">
        <lane id=":2245082742_3_0" index="0" disallow="tram rail_urban rail rail_electric rail_fast ship container cable_car subway aircraft wheelchair scooter drone" speed="6.51" length="8.82" shape="353.68,1480.17 352.11,1478.35 351.49,1476.44 351.80,1474.46 353.06,1472.41" />
    </edge>
    <edge id=":2245082742_4" function="internal">
        <lane id=":2245082742_4_0" index="0" disallow="tram rail_urban rail rail_electric rail_fast ship container cable_car subway aircraft wheelchair scooter drone" speed="8.16" length="13.79" shape="353.68,1480.17 350.54,1478.09 347.43,1477.42 344.37,1478.15 341.36,1480.28" />
    </edge>
    <edge id=":2245082742_5" function="internal">
        <lane id=":2245082742_5_0" index="0" disallow="tram rail_urban rail rail_electric rail_fast ship container cable_car subway aircraft wheelchair scooter drone" speed="3.65" length="1.44" shape="353.68,1480.17 352.25,1479.98" />
    </edge>
    <edge id=":2245082742_11" function="internal">
        <lane id=":2245082742_11_0" index="0" disallow="tram rail_urban rail rail_electric rail_fast ship container cable_car subway aircraft wheelchair scooter drone" speed="3.65" length="3.23" shape="352.25,1479.98 351.42,1480.32 351.19,1481.18 351.57,1482.58" />
    </edge>
    <edge id=":2245082742_6" function="internal">
        <lane id=":2245082742_6_0" index="0" disallow="tram rail_urban rail rail_electric rail_fast ship container cable_car subway aircraft wheelchair scooter drone" speed="6.70" length="8.96" shape="343.56,1482.61 345.51,1481.23 347.50,1480.76 349.51,1481.21 351.57,1482.58" />
    </edge>
    <edge id=":2245082742_7" function="internal">
        <lane id=":2245082742_7_0" index="0" disallow="tram rail_urban rail rail_electric rail_fast ship container cable_car subway aircraft wheelchair scooter drone" speed="22.22" length="13.95" shape="343.56,1482.61 346.13,1480.10 348.48,1477.66 350.74,1475.15 353.06,1472.41" />
    </edge>
    <edge id=":2245082742_8" function="internal">
        <lane id=":2245082742_8_0" index="0" disallow="tram rail_urban rail rail_electric rail_fast ship container cable_car subway aircraft wheelchair scooter drone" speed="3.65" length="1.44" shape="343.56,1482.61 343.88,1481.20" />
    </edge>
    <edge id=":2245082742_12" function="internal">
        <lane id=":2245082742_12_0" index="0" disallow="tram rail_urban rail rail_electric rail_fast ship container cable_car subway aircraft wheelchair scooter drone" speed="3.65" length="3.23" shape="343.88,1481.20 343.62,1480.34 342.78,1480.04 341.36,1480.28" />
    </edge>
    <edge id=":2245082777_0" function="internal">
        <lane id=":2245082777_0_0" index="0" disallow="tram rail_urban rail rail_electric rail_fast ship container cable_car subway aircraft wheelchair scooter drone" speed="6.44" length="9.03" shape="397.28,1511.02 395.44,1512.69 393.52,1513.36 391.52,1513.01 389.44,1511.64" />
    </edge>
    <edge id=":2245082777_1" function="internal">
        <lane id=":2245082777_1_0" index="0" disallow="tram rail_urban rail rail_electric rail_fast ship container cable_car subway aircraft wheelchair scooter drone" speed="22.22" length="14.42" shape="397.28,1511.02 388.05,1522.10" />
    </edge>