<?xml version="1.0" encoding="UTF-8"?>

<!-- generated on 2025-12-21 00:20:30.562910 by Eclipse SUMO osmWebWizard.py UNKNOWN
<configuration>
    <net-file value="/home/yeet/Sumo/2025-12-21-00-20-20/osm.net.xml.gz"/>
    <output-trip-file value="/home/yeet/Sumo/2025-12-21-00-20-20/osm.bus.trips.xml"/>
    <route-file value="/home/yeet/Sumo/2025-12-21-00-20-20/osm.bus.rou.xml"/>
    <prefix value="bus"/>
    <trip-attributes value="departLane=&quot;best&quot;"/>
    <fringe-start-attributes value="departSpeed=&quot;max&quot;"/>
    <vehicle-class value="bus"/>
    <fringe-factor value="1"/>
    <edge-permission value="bus"/>
    <via-edge-types value="highway.motorway,highway.motorway_link,highway.trunk_link,highway.primary_link,highway.secondary_link,highway.tertiary_link"/>
    <min-distance value="600.0"/>
    <min-distance.fringe value="10.0"/>
    <remove-loops value="True"/>
    <insertion-density value="30.0"/>
</configuration>
-->

<routes xmlns:xsi="http://www.w3.org/2001/XMLSchema-instance" xsi:noNamespaceSchemaLocation="http://sumo.dlr.de/xsd/routes_file.xsd">
    <vType id="bus_bus" vClass="bus"/>
    <trip id="bus0" depart="0.00" from="215090004#0" to="-1192071065" departLane="best" type="bus_bus"/>
    <trip id="bus1" depart="1.74" from="-215090046#0" to="1217688135#2" departLane="best" type="bus_bus"/>
    <trip id="bus2" depart="3.49" from="-1177915924" to="-215090070#0" departLane="best" type="bus_bus" departSpeed="max"/>
    <trip id="bus3" depart="5.23" from="215090017#2" to="151770988#5" departLane="best" type="bus_bus"/>
    <trip id="bus4" depart="6.97" from="-215090046#1" to="215089916#4" departLane="best" type="bus_bus"/>
    <trip id="bus5" depart="8.71" from="566962241" to="31017861#4" departLane="best" type="bus_bus" departSpeed="max"/>
    <trip id="bus6" depart="10.46" from="749128442#7" to="-659857898#0" departLane="best" type="bus_bus"/>
    <trip id="bus7" depart="12.20" from="566962241" to="31017890#3" departLane="best" type="bus_bus" departSpeed="max"/>
    <trip id="bus8" depart="13.94" from="1393642036" to="820174848#2" departLane="best" type="bus_bus" departSpeed="max"/>
    <trip id="bus9" depart="15.68" from="-659857898#0" to="215089904#1" departLane="best" type="bus_bus"/>
    <trip id="bus10" depart="17.43" from="569823304" to="215090004#0" departLane="best" type="bus_bus"/>
    <trip id="bus11" depart="19.17" from="-215090046#6" to="-566962242#2" departLane="best" type="bus_bus" departSpeed="max"/>
    <trip id="bus12" depart="20.91" from="-1206809261#0" to="-31017861#3" departLane="best" type="bus_bus"/>
    <trip id="bus13" depart="22.66" from="-646210541#1" to="-215090078#0" departLane="best" type="bus_bus"/>
    <trip id="bus14" depart="24.40" from="-31017861#3" to="749128442#2" departLane="best" type="bus_bus"/>
    <trip id="bus15" depart="26.14" from="825118129#4" to="215090022#2" departLane="best" type="bus_bus"/>
    <trip id="bus16" depart="27.88" from="-215090046#6" to="-1192595036#1" departLane="best" type="bus_bus" departSpeed="max"/>
    <trip id="bus17" depart="29.63" from="-423840850#0" to="-376927932#4" departLane="best" type="bus_bus"/>
    <trip id="bus18" depart="31.37" from="-215090022#1" to="749128442#5" departLane="best" type="bus_bus"/>
    <trip id="bus19" depart="33.11" from="646210541#4" to="-588859419#4" departLane="best" type="bus_bus"/>
    <trip id="bus20" depart="34.86" from="-31017861#2" to="-31017880#1" departLane="best" type="bus_bus"/>
    <trip id="bus21" depart="36.60" from="151770988#0" to="-376927932#1" departLane="best" type="bus_bus"/>
    <trip id="bus22" depart="38.34" from="215089904#4" to="707832926#0" departLane="best" type="bus_bus"/>
    <trip id="bus23" depart="40.08" from="-746615675#0" to="-235957078#1" departLane="best" type="bus_bus"/>
    <trip id="bus24" depart="41.83" from="992634229#0" to="1393642035" departLane="best" type="bus_bus" departSpeed="max"/>
    <trip id="bus25" depart="43.57" from="-151770988#2" to="215090017#2" departLane="best" type="bus_bus"/>
    <trip id="bus26" depart="45.31" from="566888436#0" to="1121976097#0" departLane="best" type="bus_bus"/>
    <trip id="bus27" depart="47.05" from="-1160006921#0" to="31017880#6" departLane="best" type="bus_bus"/>
    <trip id="bus28" depart="48.80" from="215090070#0" to="151770988#2" departLane="best" type="bus_bus"/>
    <trip id="bus29" depart="50.54" from="-31017861#3" to="215090022#2" departLane="best" type="bus_bus"/>
    <trip id="bus30" depart="52.28" from="-151770988#2" to="1164686614" departLane="best" type="bus_bus"/>
    <trip id="bus31" depart="54.03" from="646210541#4" to="-376927932#2" departLane="best" type="bus_bus"/>
    <trip id="bus32" depart="55.77" from="1192595036#1" to="-215090022#1" departLane="best" type="bus_bus"/>
    <trip id="bus33" depart="57.51" from="361760638" to="151770988#3" departLane="best" type="bus_bus" departSpeed="max"/>
    <trip id="bus34" depart="59.25" from="-1078958802#1" to="-596071807#2" departLane="best" type="bus_bus"/>
    <trip id="bus35" depart="61.00" from="-1164686614" to="746615675#6" departLane="best" type="bus_bus" departSpeed="max"/>
    <trip id="bus36" depart="62.74" from="646210542#0" to="588859419#1" departLane="best" type="bus_bus"/>
    <trip id="bus37" depart="64.48" from="-415062368" to="-1305503506" departLane="best" type="bus_bus" departSpeed="max"/>
    <trip id="bus38" depart="66.22" from="646210542#0" to="749128442#7" departLane="best" type="bus_bus"/>
    <trip id="bus39" depart="67.97" from="-31017861#2" to="646210542#5" departLane="best" type="bus_bus"/>
    <trip id="bus40" depart="69.71" from="1431976928#0" to="31017890#3" departLane="best" type="bus_bus"/>
    <trip id="bus41" depart="71.45" from="-215090064" to="-235957078#1" departLane="best" type="bus_bus"/>
    <trip id="bus42" depart="73.20" from="-215090046#6" to="707832926#5" departLane="best" type="bus_bus" departSpeed="max"/>
    <trip id="bus43" depart="74.94" from="596071807#0" to="-1431976930#1" departLane="best" type="bus_bus"/>
    <trip id="bus44" depart="76.68" from="746615675#5" to="215089911#2" departLane="best" type="bus_bus"/>
    <trip id="bus45" depart="78.42" from="1078958802#1" to="566888447#3" departLane="best" type="bus_bus"/>
    <trip id="bus46" depart="80.17" from="566962241" to="-215090046#3" departLane="best" type="bus_bus" departSpeed="max"/>
    <trip id="bus47" depart="81.91" from="-1431976931" to="1160006921#1" departLane="best" type="bus_bus"/>
    <trip id="bus48" depart="83.65" from="596071807#1" to="-31017880#2" departLane="best" type="bus_bus"/>
    <trip id="bus49" depart="85.40" from="-215090004#0" to="1178097064" departLane="best" type="bus_bus"/>
    <trip id="bus50" depart="87.14" from="-749128442#5" to="-423843627#0" departLane="best" type="bus_bus"/>
    <trip id="bus51" depart="88.88" from="-215225848" to="746615675#3" departLane="best" type="bus_bus"/>
    <trip id="bus52" depart="90.62" from="787945997" to="746615675#4" departLane="best" type="bus_bus"/>
    <trip id="bus53" depart="92.37" from="588859419#1" to="-215090017#0" departLane="best" type="bus_bus"/>
    <trip id="bus54" depart="94.11" from="-659857898#0" to="825118129#2" departLane="best" type="bus_bus"/>
    <trip id="bus55" depart="95.85" from="-31017861#2" to="566888447#3" departLane="best" type="bus_bus"/>
    <trip id="bus56" depart="97.59" from="1431976928#1" to="376927932#1" departLane="best" type="bus_bus"/>
    <trip id="bus57" depart="99.34" from="1195576992#0" to="646210541#1" departLane="best" type="bus_bus" departSpeed="max"/>
    <trip id="bus58" depart="101.08" from="-1206809261#0" to="-215090046#0" departLane="best" type="bus_bus"/>
    <trip id="bus59" depart="102.82" from="215089911#1" to="215090078#1" departLane="best" type="bus_bus"/>
    <trip id="bus60" depart="104.57" from="-215090070#1" to="-215089911#2" departLane="best" type="bus_bus"/>
    <trip id="bus61" depart="106.31" from="215089911#1" to="215090004#1" departLane="best" type="bus_bus"/>
    <trip id="bus62" depart="108.05" from="-423840850#0" to="376927932#3" departLane="best" type="bus_bus"/>
    <trip id="bus63" depart="109.79" from="992634229#1" to="827899848" departLane="best" type="bus_bus"/>
    <trip id="bus64" depart="111.54" from="-31017861#2" to="749128442#1" departLane="best" type="bus_bus"/>
    <trip id="bus65" depart="113.28" from="646210542#1" to="659857898#1" departLane="best" type="bus_bus"/>
    <trip id="bus66" depart="115.02" from="-646210541#1" to="-215089976#0" departLane="best" type="bus_bus"/>
    <trip id="bus67" depart="116.76" from="571283261#1" to="31017861#6" departLane="best" type="bus_bus"/>
    <trip id="bus68" depart="118.51" from="31017861#4" to="-215090070#2" departLane="best" type="bus_bus"/>
    <trip id="bus69" depart="120.25" from="215089976#0" to="-376927932#2" departLane="best" type="bus_bus"/>
    <trip id="bus70" depart="121.99" from="588859419#0" to="-151770988#5" departLane="best" type="bus_bus"/>
    <trip id="bus71" depart="123.74" from="-1105791652" to="423843627#1" departLane="best" type="bus_bus"/>
    <trip id="bus72" depart="125.48" from="-749128442#7" to="-1160006921#0" departLane="best" type="bus_bus"/>
    <trip id="bus73" depart="127.22" from="-1195576992#7" to="659857898#3" departLane="best" type="bus_bus"/>
    <trip id="bus74" depart="128.96" from="571283261#1" to="215089916#1" departLane="best" type="bus_bus"/>
    <trip id="bus75" depart="130.71" from="-415062373" to="707832926#0" departLane="best" type="bus_bus" departSpeed="max"/>
    <trip id="bus76" depart="132.45" from="659857898#2" to="-215090078#0" departLane="best" type="bus_bus"/>
    <trip id="bus77" depart="134.19" from="423840850#0" to="659857898#3" departLane="best" type="bus_bus"/>
    <trip id="bus78" depart="135.94" from="-746615675#4" to="215090004#1" departLane="best" type="bus_bus"/>
    <trip id="bus79" depart="137.68" from="596071807#2" to="820174849#1" departLane="best" type="bus_bus"/>
    <trip id="bus80" depart="139.42" from="566962242#1" to="659857898#2" departLane="best" type="bus_bus"/>
    <trip id="bus81" depart="141.16" from="-1177915924" to="31017896#1" departLane="best" type="bus_bus" departSpeed="max"/>
    <trip id="bus82" depart="142.91" from="566962242#1" to="-376927932#3" departLane="best" type="bus_bus"/>
    <trip id="bus83" depart="144.65" from="566888433#0" to="-215089904#5" departLane="best" type="bus_bus"/>
    <trip id="bus84" depart="146.39" from="-825118129#4" to="-588859419#0" departLane="best" type="bus_bus"/>
    <trip id="bus85" depart="148.13" from="566888447#1" to="-31017861#1" departLane="best" type="bus_bus"/>
    <trip id="bus86" depart="149.88" from="-1177776606" to="-215090046#4" departLane="best" type="bus_bus" departSpeed="max"/>
    <trip id="bus87" depart="151.62" from="787858371" to="-423843627#0" departLane="best" type="bus_bus" departSpeed="max"/>
    <trip id="bus88" depart="153.36" from="215090004#1" to="-825118129#0" departLane="best" type="bus_bus"/>
    <trip id="bus89" depart="155.11" from="825118129#0" to="151770988#0" departLane="best" type="bus_bus"/>
    <trip id="bus90" depart="156.85" from="746615675#6" to="-215089911#0" departLane="best" type="bus_bus"/>
    <trip id="bus91" depart="158.59" from="787945997" to="-215090022#1" departLane="best" type="bus_bus"/>
    <trip id="bus92" depart="160.33" from="787858368#1" to="-376927932#3" departLane="best" type="bus_bus"/>
    <trip id="bus93" depart="162.08" from="-151770988#0" to="1164686614" departLane="best" type="bus_bus"/>
    <trip id="bus94" depart="163.82" from="215089911#6" to="1431976928#0" departLane="best" type="bus_bus"/>
    <trip id="bus95" depart="165.56" from="-659857898#3" to="215089911#4" departLane="best" type="bus_bus"/>
    <trip id="bus96" depart="167.30" from="-596071807#2" to="-1431976930#1" departLane="best" type="bus_bus"/>
    <trip id="bus97" depart="169.05" from="215090045#0" to="-646210541#2" departLane="best" type="bus_bus"/>
    <trip id="bus98" depart="170.79" from="-415068142" to="596071807#2" departLane="best" type="bus_bus"/>
    <trip id="bus99" depart="172.53" from="-746615675#2" to="-566962242#6" departLane="best" type="bus_bus"/>
    <trip id="bus100" depart="174.28" from="659857901" to="215089976#2" departLane="best" type="bus_bus"/>
    <trip id="bus101" depart="176.02" from="-376927932#3" to="215089904#0" departLane="best" type="bus_bus"/>
    <trip id="bus102" depart="177.76" from="-749128442#8" to="215089911#6" departLane="best" type="bus_bus"/>
    <trip id="bus103" depart="179.50" from="-1305503506" to="1431976929#0" departLane="best" type="bus_bus"/>
    <trip id="bus104" depart="181.25" from="566962242#5" to="376927932#3" departLane="best" type="bus_bus"/>
    <trip id="bus105" depart="182.99" from="215090046#3" to="-235978549" departLane="best" type="bus_bus"/>
    <trip id="bus106" depart="184.73" from="-215225848" to="596071807#2" departLane="best" type="bus_bus"/>
    <trip id="bus107" depart="186.48" from="215090046#0" to="825118129#3" departLane="best" type="bus_bus"/>
    <trip id="bus108" depart="188.22" from="215089911#1" to="749128442#8" departLane="best" type="bus_bus"/>
    <trip id="bus109" depart="189.96" from="659857898#1" to="361760637" departLane="best" type="bus_bus"/>
    <trip id="bus110" depart="191.70" from="-215090078#1" to="215090022#1" departLane="best" type="bus_bus"/>
    <trip id="bus111" depart="193.45" from="376927932#1" to="1431976931" departLane="best" type="bus_bus"/>
    <trip id="bus112" depart="195.19" from="-215090064" to="31017861#2" departLane="best" type="bus_bus"/>
    <trip id="bus113" depart="196.93" from="-746615675#4" to="151770988#4" departLane="best" type="bus_bus"/>
    <trip id="bus114" depart="198.67" from="-749128442#4" to="707832926#5" departLane="best" type="bus_bus"/>
    <trip id="bus115" depart="200.42" from="215089904#4" to="31017861#3" departLane="best" type="bus_bus"/>
    <trip id="bus116" depart="202.16" from="-659857898#1" to="-1121976097#0" departLane="best" type="bus_bus"/>
    <trip id="bus117" depart="203.90" from="-588859419#2" to="376927932#4" departLane="best" type="bus_bus"/>
    <trip id="bus118" depart="205.65" from="-749128442#3" to="376927932#1" departLane="best" type="bus_bus"/>
    <trip id="bus119" depart="207.39" from="-215090046#1" to="-235957078#1" departLane="best" type="bus_bus"/>
    <trip id="bus120" depart="209.13" from="-827899848" to="-215089911#6" departLane="best" type="bus_bus" departSpeed="max"/>
    <trip id="bus121" depart="210.87" from="-703914561#1" to="215089908#1" departLane="best" type="bus_bus" departSpeed="max"/>
    <trip id="bus122" depart="212.62" from="361760638" to="-749128442#6" departLane="best" type="bus_bus" departSpeed="max"/>
    <trip id="bus123" depart="214.36" from="-1164686614" to="151770988#3" departLane="best" type="bus_bus" departSpeed="max"/>
    <trip id="bus124" depart="216.10" from="992634229#1" to="-703914562" departLane="best" type="bus_bus"/>
    <trip id="bus125" depart="217.84" from="215090017#2" to="566888436#1" departLane="best" type="bus_bus"/>
    <trip id="bus126" depart="219.59" from="215090017#2" to="376927932#4" departLane="best" type="bus_bus"/>
    <trip id="bus127" depart="221.33" from="-1175896817" to="-215089949#0" departLane="best" type="bus_bus" departSpeed="max"/>
    <trip id="bus128" depart="223.07" from="151770988#2" to="-235957078#0" departLane="best" type="bus_bus"/>
    <trip id="bus129" depart="224.82" from="566962242#6" to="789770471" departLane="best" type="bus_bus"/>
    <trip id="bus130" depart="226.56" from="-415062374" to="215225848" departLane="best" type="bus_bus" departSpeed="max"/>
    <trip id="bus131" depart="228.30" from="749128442#8" to="-806357169#0" departLane="best" type="bus_bus"/>
    <trip id="bus132" depart="230.04" from="31017861#3" to="-1431978404#1" departLane="best" type="bus_bus"/>
    <trip id="bus133" depart="231.79" from="-1431978404#1" to="423843627#1" departLane="best" type="bus_bus"/>
    <trip id="bus134" depart="233.53" from="423840850#1" to="-703884520#0" departLane="best" type="bus_bus"/>
    <trip id="bus135" depart="235.27" from="1195576992#1" to="-659857898#2" departLane="best" type="bus_bus"/>
    <trip id="bus136" depart="237.02" from="215089976#0" to="588859419#0" departLane="best" type="bus_bus"/>
    <trip id="bus137" depart="238.76" from="31017880#3" to="789770471" departLane="best" type="bus_bus"/>
    <trip id="bus138" depart="240.50" from="-31017861#4" to="646210541#1" departLane="best" type="bus_bus"/>
    <trip id="bus139" depart="242.24" from="-659857898#0" to="-1192595035" departLane="best" type="bus_bus"/>
    <trip id="bus140" depart="243.99" from="-566962242#8" to="659857898#2" departLane="best" type="bus_bus"/>
    <trip id="bus141" depart="245.73" from="1187096042#0" to="415062368" departLane="best" type="bus_bus"/>
    <trip id="bus142" depart="247.47" from="215090077" to="215090046#0" departLane="best" type="bus_bus"/>
    <trip id="bus143" depart="249.21" from="31017890#2" to="-646210541#2" departLane="best" type="bus_bus"/>
    <trip id="bus144" depart="250.96" from="-235957078#0" to="-215089911#3" departLane="best" type="bus_bus"/>
    <trip id="bus145" depart="252.70" from="-215090004#1" to="-215089911#2" departLane="best" type="bus_bus"/>
    <trip id="bus146" depart="254.44" from="1393642036" to="415062374" departLane="best" type="bus_bus" departSpeed="max"/>
    <trip id="bus147" depart="256.19" from="820174849#1" to="1431978404#0" departLane="best" type="bus_bus"/>
    <trip id="bus148" depart="257.93" from="-215090004#1" to="-31017861#1" departLane="best" type="bus_bus"/>
    <trip id="bus149" depart="259.67" from="1305503506" to="-423840850#0" departLane="best" type="bus_bus"/>
    <trip id="bus150" depart="261.41" from="646210541#1" to="1195576992#7" departLane="best" type="bus_bus"/>
    <trip id="bus151" depart="263.16" from="646210541#2" to="215089911#3" departLane="best" type="bus_bus"/>
    <trip id="bus152" depart="264.90" from="-992634229#1" to="1175896817" departLane="best" type="bus_bus"/>
    <trip id="bus153" depart="266.64" from="-1192068860" to="-215089943" departLane="best" type="bus_bus" departSpeed="max"/>
    <trip id="bus154" depart="268.38" from="151770988#2" to="-569823304" departLane="best" type="bus_bus"/>
    <trip id="bus155" depart="270.13" from="566888436#0" to="-31017861#0" departLane="best" type="bus_bus"/>
    <trip id="bus156" depart="271.87" from="1195576992#9" to="1187096042#0" departLane="best" type="bus_bus"/>
    <trip id="bus157" depart="273.61" from="-215090022#0" to="-215090078#0" departLane="best" type="bus_bus"/>
    <trip id="bus158" depart="275.36" from="215090022#1" to="-215089976#0" departLane="best" type="bus_bus"/>
    <trip id="bus159" depart="277.10" from="-1105791652" to="1187096042#0" departLane="best" type="bus_bus"/>
    <trip id="bus160" depart="278.84" from="-215090064" to="31017880#0" departLane="best" type="bus_bus"/>
    <trip id="bus161" depart="280.58" from="235957078#1" to="1187096042#1" departLane="best" type="bus_bus"/>
    <trip id="bus162" depart="282.33" from="566888433#0" to="215090017#1" departLane="best" type="bus_bus"/>
    <trip id="bus163" depart="284.07" from="215090022#2" to="749128442#1" departLane="best" type="bus_bus"/>
    <trip id="bus164" depart="285.81" from="-749128442#6" to="151770988#5" departLane="best" type="bus_bus"/>
    <trip id="bus165" depart="287.56" from="215090017#1" to="707832926#6" departLane="best" type="bus_bus"/>
    <trip id="bus166" depart="289.30" from="566962242#9" to="-1431976931" departLane="best" type="bus_bus"/>
    <trip id="bus167" depart="291.04" from="-31017880#5" to="-215089911#4" departLane="best" type="bus_bus"/>
    <trip id="bus168" depart="292.78" from="-423843627#1" to="-31017880#3" departLane="best" type="bus_bus"/>
    <trip id="bus169" depart="294.53" from="571283261#2" to="215089911#4" departLane="best" type="bus_bus"/>
    <trip id="bus170" depart="296.27" from="-992634229#1" to="215090046#3" departLane="best" type="bus_bus"/>
    <trip id="bus171" depart="298.01" from="215089904#5" to="215090022#0" departLane="best" type="bus_bus"/>
    <trip id="bus172" depart="299.75" from="1190739880#1" to="-151770988#4" departLane="best" type="bus_bus"/>
    <trip id="bus173" depart="301.50" from="-588859419#0" to="-646210541#3" departLane="best" type="bus_bus"/>
    <trip id="bus174" depart="303.24" from="215090046#1" to="646210541#4" departLane="best" type="bus_bus"/>
    <trip id="bus175" depart="304.98" from="-566962242#2" to="31017861#2" departLane="best" type="bus_bus"/>
    <trip id="bus176" depart="306.73" from="-423843627#1" to="806357169#1" departLane="best" type="bus_bus"/>
    <trip id="bus177" depart="308.47" from="825118129#3" to="215090046#6" departLane="best" type="bus_bus"/>
    <trip id="bus178" depart="310.21" from="31017896#1" to="215090017#1" departLane="best" type="bus_bus"/>
    <trip id="bus179" depart="311.95" from="361760636" to="-215090070#2" departLane="best" type="bus_bus"/>
    <trip id="bus180" depart="313.70" from="-787858372" to="31017861#4" departLane="best" type="bus_bus" departSpeed="max"/>
    <trip id="bus181" depart="315.44" from="-215089904#0" to="820174848#2" departLane="best" type="bus_bus"/>
    <trip id="bus182" depart="317.18" from="1431978404#1" to="-151770988#5" departLane="best" type="bus_bus"/>
    <trip id="bus183" depart="318.92" from="825118129#5" to="707832926#9" departLane="best" type="bus_bus"/>
    <trip id="bus184" depart="320.67" from="571283261#0" to="1206809261#1" departLane="best" type="bus_bus" departSpeed="max"/>
    <trip id="bus185" depart="322.41" from="31017861#4" to="1393642035" departLane="best" type="bus_bus"/>
    <trip id="bus186" depart="324.15" from="825118129#0" to="-31017880#0" departLane="best" type="bus_bus"/>
    <trip id="bus187" depart="325.90" from="1431976928#0" to="-659857898#3" departLane="best" type="bus_bus"/>
    <trip id="bus188" depart="327.64" from="1431978404#1" to="151770988#5" departLane="best" type="bus_bus"/>
    <trip id="bus189" depart="329.38" from="-825118129#1" to="-596071807#1" departLane="best" type="bus_bus"/>
    <trip id="bus190" depart="331.12" from="-215089976#2" to="31017861#4" departLane="best" type="bus_bus"/>
    <trip id="bus191" depart="332.87" from="151770988#6" to="-31017861#3" departLane="best" type="bus_bus"/>
    <trip id="bus192" depart="334.61" from="215089908#1" to="646210542#4" departLane="best" type="bus_bus"/>
    <trip id="bus193" depart="336.35" from="-992634229#1" to="806357169#1" departLane="best" type="bus_bus"/>
    <trip id="bus194" depart="338.10" from="-566962242#7" to="31017861#2" departLane="best" type="bus_bus"/>
    <trip id="bus195" depart="339.84" from="215090017#2" to="646210541#1" departLane="best" type="bus_bus"/>
    <trip id="bus196" depart="341.58" from="588859419#2" to="646210541#4" departLane="best" type="bus_bus"/>
    <trip id="bus197" depart="343.32" from="-659857898#1" to="-590993175" departLane="best" type="bus_bus"/>
    <trip id="bus198" depart="345.07" from="646210541#2" to="-1195576992#1" departLane="best" type="bus_bus"/>
    <trip id="bus199" depart="346.81" from="646210541#2" to="1177915924" departLane="best" type="bus_bus"/>
    <trip id="bus200" depart="348.55" from="215090078#0" to="707832926#2" departLane="best" type="bus_bus"/>
    <trip id="bus201" depart="350.29" from="-376927932#0" to="-749128442#4" departLane="best" type="bus_bus"/>
    <trip id="bus202" depart="352.04" from="151770988#3" to="566888447#6" departLane="best" type="bus_bus"/>
    <trip id="bus203" depart="353.78" from="646210541#2" to="215090004#1" departLane="best" type="bus_bus"/>
    <trip id="bus204" depart="355.52" from="-215090070#3" to="707832926#9" departLane="best" type="bus_bus"/>
    <trip id="bus205" depart="357.27" from="-215089911#2" to="1190739881" departLane="best" type="bus_bus"/>
    <trip id="bus206" depart="359.01" from="659857898#3" to="215225848" departLane="best" type="bus_bus"/>
    <trip id="bus207" depart="360.75" from="215090004#0" to="1121976098" departLane="best" type="bus_bus"/>
    <trip id="bus208" depart="362.49" from="-235957078#0" to="596071807#1" departLane="best" type="bus_bus"/>
    <trip id="bus209" depart="364.24" from="1160006921#2" to="-31017861#5" departLane="best" type="bus_bus"/>
    <trip id="bus210" depart="365.98" from="151770988#6" to="215089911#4" departLane="best" type="bus_bus"/>
    <trip id="bus211" depart="367.72" from="820174850#1" to="215090046#6" departLane="best" type="bus_bus"/>
    <trip id="bus212" depart="369.46" from="-1190742076#1" to="215089949#0" departLane="best" type="bus_bus" departSpeed="max"/>
    <trip id="bus213" depart="371.21" from="215089911#6" to="-746615675#0" departLane="best" type="bus_bus"/>
    <trip id="bus214" depart="372.95" from="215089976#2" to="215090004#1" departLane="best" type="bus_bus"/>
    <trip id="bus215" depart="374.69" from="215090046#5" to="31017880#6" departLane="best" type="bus_bus"/>
    <trip id="bus216" depart="376.44" from="215090022#1" to="588859419#4" departLane="best" type="bus_bus"/>
    <trip id="bus217" depart="378.18" from="215089945" to="707832926#2" departLane="best" type="bus_bus"/>
    <trip id="bus218" depart="379.92" from="215090017#0" to="-588859419#1" departLane="best" type="bus_bus"/>
    <trip id="bus219" depart="381.66" from="31017880#3" to="-151770988#4" departLane="best" type="bus_bus"/>
    <trip id="bus220" depart="383.41" from="571283261#0" to="-31017880#6" departLane="best" type="bus_bus" departSpeed="max"/>
    <trip id="bus221" depart="385.15" from="566962241" to="376927932#1" departLane="best" type="bus_bus" departSpeed="max"/>
    <trip id="bus222" depart="386.89" from="31017861#7" to="820174850#1" departLane="best" type="bus_bus"/>
    <trip id="bus223" depart="388.64" from="-596071807#2" to="566888447#6" departLane="best" type="bus_bus"/>
    <trip id="bus224" depart="390.38" from="-1160006921#1" to="151770988#0" departLane="best" type="bus_bus"/>
    <trip id="bus225" depart="392.12" from="215090046#3" to="215089916#2" departLane="best" type="bus_bus"/>
    <trip id="bus226" depart="393.86" from="-151770988#0" to="-31017861#3" departLane="best" type="bus_bus"/>
    <trip id="bus227" depart="395.61" from="-1177915924" to="659857901" departLane="best" type="bus_bus" departSpeed="max"/>
    <trip id="bus228" depart="397.35" from="151770988#0" to="708292170" departLane="best" type="bus_bus"/>
    <trip id="bus229" depart="399.09" from="-215090046#3" to="-1431976928#1" departLane="best" type="bus_bus"/>
    <trip id="bus230" depart="400.83" from="566962242#8" to="707832926#8" departLane="best" type="bus_bus"/>
    <trip id="bus231" depart="402.58" from="-376927932#4" to="-825118129#4" departLane="best" type="bus_bus"/>
    <trip id="bus232" depart="404.32" from="-215089911#0" to="749128442#6" departLane="best" type="bus_bus"/>
    <trip id="bus233" depart="406.06" from="-1431976931" to="659857902" departLane="best" type="bus_bus"/>
    <trip id="bus234" depart="407.81" from="-215089904#6" to="1187096042#1" departLane="best" type="bus_bus"/>
    <trip id="bus235" depart="409.55" from="215090046#1" to="361760637" departLane="best" type="bus_bus"/>
    <trip id="bus236" depart="411.29" from="-646210541#1" to="1177915924" departLane="best" type="bus_bus"/>
    <trip id="bus237" depart="413.03" from="749128442#4" to="646210541#3" departLane="best" type="bus_bus"/>
    <trip id="bus238" depart="414.78" from="-590993175" to="-806357169#0" departLane="best" type="bus_bus"/>
    <trip id="bus239" depart="416.52" from="-215090004#0" to="-215089911#3" departLane="best" type="bus_bus"/>
    <trip id="bus240" depart="418.26" from="588859419#0" to="1187096043" departLane="best" type="bus_bus"/>
    <trip id="bus241" depart="420.00" from="215090022#2" to="215090045#0" departLane="best" type="bus_bus"/>
    <trip id="bus242" depart="421.75" from="215089911#2" to="-1190739880#1" departLane="best" type="bus_bus"/>
    <trip id="bus243" depart="423.49" from="566888433#0" to="-31017880#0" departLane="best" type="bus_bus"/>
    <trip id="bus244" depart="425.23" from="-1195576992#4" to="415068142" departLane="best" type="bus_bus"/>
    <trip id="bus245" depart="426.98" from="-215089911#4" to="707832926#1" departLane="best" type="bus_bus"/>
    <trip id="bus246" depart="428.72" from="-1105791652" to="646210541#4" departLane="best" type="bus_bus"/>
    <trip id="bus247" depart="430.46" from="215090022#2" to="-1192071065" departLane="best" type="bus_bus"/>
    <trip id="bus248" depart="432.20" from="-215090070#2" to="-596071807#2" departLane="best" type="bus_bus"/>
    <trip id="bus249" depart="433.95" from="31017890#2" to="1195576992#1" departLane="best" type="bus_bus"/>
    <trip id="bus250" depart="435.69" from="415068142" to="1431976928#1" departLane="best" type="bus_bus"/>
    <trip id="bus251" depart="437.43" from="1160006921#0" to="-825118129#1" departLane="best" type="bus_bus"/>
    <trip id="bus252" depart="439.18" from="703914562" to="-1431976931" departLane="best" type="bus_bus"/>
    <trip id="bus253" depart="440.92" from="-1195576992#2" to="-423840850#0" departLane="best" type="bus_bus"/>
    <trip id="bus254" depart="442.66" from="235957078#1" to="646210541#1" departLane="best" type="bus_bus"/>
    <trip id="bus255" depart="444.40" from="31017861#5" to="-215225848" departLane="best" type="bus_bus"/>
    <trip id="bus256" depart="446.15" from="-825118129#0" to="-31017861#1" departLane="best" type="bus_bus"/>
    <trip id="bus257" depart="447.89" from="-749128442#2" to="-151770988#6" departLane="best" type="bus_bus"/>
    <trip id="bus258" depart="449.63" from="-1431976931" to="31017896#2" departLane="best" type="bus_bus"/>
    <trip id="bus259" depart="451.37" from="-566962242#2" to="-215089911#3" departLane="best" type="bus_bus"/>