<?xml version="1.0" encoding="UTF-8"?>
<configuration>
<additional-files value="rl_traffic_lights.add.xml"/>
    <input>
        <net-file value="osm.net.xml"/>
        <route-files value="osm.rou.xml"/>
    </input>
    <time>
        <begin value="0"/>
        <end value="3600"/>
    </time>
    <gui_only>
        <gui-settings-file value="gui-settings.cfg"/>
    </gui_only>
</configuration>
