<?xml version="1.0" encoding="UTF-8"?>

<!-- generated on 2025-12-19T23:59:58.910272+05:30 by Eclipse SUMO netconvert 1.25.0
<netconvertConfiguration xmlns:xsi="http://www.w3.org/2001/XMLSchema-instance" xsi:noNamespaceSchemaLocation="http://sumo.dlr.de/xsd/netconvertConfiguration.xsd">

    <input>
        <sumo-net-file value="Berlin2/berlin.net.xml"/>
    </input>

    <output>
        <output-file value="Berlin2_20164_13235_2km/berlin.net.xml"/>
    </output>

    <processing>
        <geometry.min-radius.fix.railways value="false"/>
        <geometry.avoid-overlap value="false"/>
        <geometry.max-grade.fix value="false"/>
        <offset.disable-normalization value="true"/>
        <lefthand value="0"/>
    </processing>

    <edge_removal>
        <keep-edges.in-geo-boundary value="19164.399999999998,12235.824999999999,21164.399999999998,14235.824999999999"/>
        <remove-edges.isolated value="true"/>
    </edge_removal>

    <junctions>
        <no-turnarounds value="true"/>
        <junctions.corner-detail value="5"/>
        <junctions.limit-turn-speed value="5.50"/>
        <rectangular-lane-cut value="0"/>
    </junctions>

    <pedestrian>
        <walkingareas value="0"/>
    </pedestrian>

</netconvertConfiguration>
-->

<net version="1.20" junctionCornerDetail="5" limitTurnSpeed="5.50" avoidOverlap="0" xmlns:xsi="http://www.w3.org/2001/XMLSchema-instance" xsi:noNamespaceSchemaLocation="http://sumo.dlr.de/xsd/net_file.xsd">

    <location netOffset="-372355.98,-5804722.35" convBoundary="18885.24,12040.56,21357.45,14596.17" origBoundary="13.122591,52.383149,13.502221,52.618113" projParameter="+proj=utm +zone=33 +ellps=WGS84 +datum=WGS84 +units=m +no_defs"/>

    <type id="highway.residential" priority="3" numLanes="1" speed="13.89" disallow="tram rail_urban rail rail_electric rail_fast ship container cable_car subway aircraft wheelchair scooter drone" oneway="0"/>
    <type id="highway.secondary" priority="11" numLanes="1" speed="27.78" disallow="tram rail_urban rail rail_electric rail_fast ship container cable_car subway aircraft wheelchair scooter drone" oneway="0"/>
    <type id="highway.tertiary" priority="10" numLanes="1" speed="22.22" disallow="tram rail_urban rail rail_electric rail_fast ship container cable_car subway aircraft wheelchair scooter drone" oneway="0"/>

    <edge id=":1028288041_0" function="internal">
        <lane id=":1028288041_0_0" index="0" disallow="tram rail_urban rail rail_electric rail_fast ship cable_car subway" speed="13.89" length="8.21" shape="19314.71,12436.62 19312.49,12437.52 19311.11,12438.49 19309.73,12439.47 19307.51,12440.38"/>
        <lane id=":1028288041_0_1" index="1" disallow="tram rail_urban rail rail_electric rail_fast ship cable_car subway" speed="13.89" length="8.21" shape="19313.83,12433.54 19311.60,12434.44 19310.21,12435.41 19308.83,12436.39 19306.60,12437.32"/>
        <lane id=":1028288041_0_2" index="2" disallow="tram rail_urban rail rail_electric rail_fast ship cable_car subway" speed="13.89" length="8.21" shape="19313.83,12433.54 19311.45,12433.96 19309.76,12433.88 19308.06,12433.81 19305.69,12434.25"/>
    </edge>
    <edge id=":1028288068_0" function="internal">
        <lane id=":1028288068_0_0" index="0" disallow="tram rail_urban rail rail_electric rail_fast ship cable_car subway" speed="13.89" length="8.20" shape="19177.79,12460.76 19180.01,12459.84 19181.38,12458.86 19182.74,12457.86 19184.95,12456.92"/>
        <lane id=":1028288068_0_1" index="1" disallow="tram rail_urban rail rail_electric rail_fast ship cable_car subway" speed="13.89" length="8.20" shape="19178.70,12463.83 19180.93,12462.91 19182.31,12461.92 19183.68,12460.92 19185.90,12459.97"/>
        <lane id=":1028288068_0_2" index="2" disallow="tram rail_urban rail rail_electric rail_fast ship cable_car subway" speed="13.89" length="8.20" shape="19178.70,12463.83 19181.08,12463.39 19182.78,12463.45 19184.48,12463.50 19186.85,12463.03"/>
    </edge>
    <edge id=":1237777024_0" function="internal">
        <lane id=":1237777024_0_0" index="0" disallow="tram rail_urban rail rail_electric rail_fast ship cable_car subway" speed="3.65" length="4.67" shape="20157.56,14127.86 20156.12,14127.86 20155.34,14127.42 20155.23,14126.53 20155.78,14125.20"/>
    </edge>
    <edge id=":1382853161_0" function="internal">
        <lane id=":1382853161_0_0" index="0" disallow="tram rail_urban rail rail_electric rail_fast ship cable_car subway" speed="13.89" length="7.96" shape="21075.28,14171.41 21071.29,14164.52"/>
    </edge>
    <edge id=":1382853161_1" function="internal">
        <lane id=":1382853161_1_0" index="0" disallow="tram rail_urban rail rail_electric rail_fast ship cable_car subway" speed="13.89" length="8.41" shape="21074.05,14162.90 21075.73,14164.78 21077.46,14165.56 21079.18,14166.35 21080.84,14168.24"/>
        <lane id=":1382853161_1_1" index="1" disallow="tram rail_urban rail rail_electric rail_fast ship cable_car subway" speed="13.89" length="8.41" shape="21074.05,14162.90 21078.06,14169.83"/>
    </edge>
    <edge id=":1417956805_0" function="internal">
        <lane id=":1417956805_0_0" index="0" disallow="tram rail_urban rail rail_electric rail_fast ship cable_car subway" speed="6.09" length="7.72" shape="20602.07,12621.04 20601.77,12619.69 20602.33,12618.27 20603.76,12616.80 20606.06,12615.27"/>
    </edge>
    <edge id=":1417956805_1" function="internal">
        <lane id=":1417956805_1_0" index="0" disallow="tram rail_urban rail rail_electric rail_fast ship cable_car subway" speed="8.33" length="9.25" shape="20597.81,12619.46 20600.32,12618.33 20602.01,12617.52 20603.67,12616.63 20606.06,12615.27"/>
    </edge>
    <edge id=":1417956805_2" function="internal">
        <lane id=":1417956805_2_0" index="0" disallow="tram rail_urban rail rail_electric rail_fast ship cable_car subway" speed="6.24" length="7.68" shape="20597.81,12619.46 20600.37,12618.51 20602.40,12618.21 20603.90,12618.53 20604.87,12619.49"/>
    </edge>
    <edge id=":1417956806_0" function="internal">
        <lane id=":1417956806_0_0" index="0" disallow="tram rail_urban rail rail_electric rail_fast ship cable_car subway" speed="6.67" length="9.31" shape="20698.89,12796.20 20697.35,12794.19 20695.52,12793.13 20693.41,12793.02 20691.01,12793.86"/>
    </edge>
    <edge id=":1417956806_1" function="internal">
        <lane id=":1417956806_1_0" index="0" disallow="tram rail_urban rail rail_electric rail_fast ship cable_car subway" speed="8.33" length="14.55" shape="20698.89,12796.20 20691.83,12783.48"/>
    </edge>
    <edge id=":1417956806_2" function="internal">
        <lane id=":1417956806_2_0" index="0" disallow="tram rail_urban rail rail_electric rail_fast ship cable_car subway" speed="7.97" length="14.27" shape="20698.89,12796.20 20697.47,12792.55 20697.58,12789.34 20699.21,12786.57 20702.36,12784.24"/>
    </edge>
    <edge id=":1417956806_3" function="internal">
        <lane id=":1417956806_3_0" index="0" disallow="tram rail_urban rail rail_electric rail_fast ship cable_car subway" speed="6.46" length="9.03" shape="20703.88,12787.06 20701.88,12788.53 20700.85,12790.29 20700.78,12792.32 20701.68,12794.63"/>
    </edge>
    <edge id=":1417956806_4" function="internal">
        <lane id=":1417956806_4_0" index="0" disallow="tram rail_urban rail rail_electric rail_fast ship cable_car subway" speed="8.33" length="14.55" shape="20703.88,12787.06 20691.01,12793.86"/>
    </edge>
    <edge id=":1417956806_5" function="internal">
        <lane id=":1417956806_5_0" index="0" disallow="tram rail_urban rail rail_electric rail_fast ship cable_car subway" speed="8.05" length="14.31" shape="20703.88,12787.06 20700.20,12788.41 20696.96,12788.26 20694.17,12786.62 20691.83,12783.48"/>
    </edge>
    <edge id=":1417956806_6" function="internal">
        <lane id=":1417956806_6_0" index="0" disallow="tram rail_urban rail rail_electric rail_fast ship cable_car subway" speed="6.57" length="9.18" shape="20694.63,12781.95 20696.14,12783.96 20697.93,12785.01 20700.00,12785.11 20702.36,12784.24"/>
    </edge>
    <edge id=":1417956806_7" function="internal">
        <lane id=":1417956806_7_0" index="0" disallow="tram rail_urban rail rail_electric rail_fast ship cable_car subway" speed="8.33" length="14.51" shape="20694.63,12781.95 20701.68,12794.63"/>
    </edge>
    <edge id=":1417956806_8" function="internal">
        <lane id=":1417956806_8_0" index="0" disallow="tram rail_urban rail rail_electric rail_fast ship cable_car subway" speed="7.96" length="14.27" shape="20694.63,12781.95 20696.01,12785.62 20695.86,12788.83 20694.20,12791.58 20691.01,12793.86"/>
    </edge>
    <edge id=":1417956806_9" function="internal">
        <lane id=":1417956806_9_0" index="0" disallow="tram rail_urban rail rail_electric rail_fast ship cable_car subway" speed="6.46" length="9.03" shape="20689.53,12791.02 20691.55,12789.58 20692.61,12787.84 20692.70,12785.81 20691.83,12783.48"/>
    </edge>
    <edge id=":1417956806_10" function="internal">
        <lane id=":1417956806_10_0" index="0" disallow="tram rail_urban rail rail_electric rail_fast ship cable_car subway" speed="8.33" length="14.51" shape="20689.53,12791.02 20702.36,12784.24"/>
    </edge>
    <edge id=":1417956806_11" function="internal">
        <lane id=":1417956806_11_0" index="0" disallow="tram rail_urban rail rail_electric rail_fast ship cable_car subway" speed="8.14" length="14.34" shape="20689.53,12791.02 20693.23,12789.72 20696.48,12789.89 20699.30,12791.53 20701.68,12794.63"/>
    </edge>
    <edge id=":1539734200_0" function="internal">
        <lane id=":1539734200_0_0" index="0" disallow="tram rail_urban rail rail_electric rail_fast ship cable_car subway" speed="13.89" length="0.41" shape="20311.68,13012.48 20311.62,13012.48 20311.58,13012.48 20311.53,13012.48 20311.47,13012.48"/>
        <lane id=":1539734200_0_1" index="1" disallow="tram rail_urban rail rail_electric rail_fast ship cable_car subway" speed="13.89" length="0.41" shape="20311.87,13009.29 20311.69,13009.27 20311.56,13009.27 20311.44,13009.28 20311.25,13009.29"/>
    </edge>
    <edge id=":162468251_0" function="internal">
        <lane id=":162468251_0_0" index="0" disallow="tram rail_urban rail rail_electric rail_fast ship cable_car subway" speed="8.33" length="15.07" shape="19185.70,12733.99 19170.75,12735.90"/>
    </edge>
    <edge id=":162468251_1" function="internal">
        <lane id=":162468251_1_0" index="0" disallow="tram rail_urban rail rail_electric rail_fast ship cable_car subway" speed="8.33" length="15.40" shape="19185.70,12733.99 19182.33,12733.82 19179.12,12732.50 19176.07,12730.02 19173.19,12726.40"/>
    </edge>
    <edge id=":162468251_2" function="internal">
        <lane id=":162468251_2_0" index="0" disallow="tram rail_urban rail rail_electric rail_fast ship cable_car subway" speed="8.33" length="11.89" shape="19175.85,12724.62 19178.14,12727.55 19180.48,12729.56 19182.87,12730.65 19185.32,12730.82"/>
    </edge>
    <edge id=":162468251_3" function="internal">
        <lane id=":162468251_3_0" index="0" disallow="tram rail_urban rail rail_electric rail_fast ship cable_car subway" speed="7.44" length="16.35" shape="19175.85,12724.62 19177.97,12728.97 19177.82,12732.30 19175.42,12734.61 19170.75,12735.90"/>
    </edge>
    <edge id=":162468251_4" function="internal">
        <lane id=":162468251_4_0" index="0" disallow="tram rail_urban rail rail_electric rail_fast ship cable_car subway" speed="5.74" length="9.18" shape="19170.33,12732.73 19172.94,12732.00 19174.29,12730.71 19174.37,12728.84 19173.19,12726.40"/>
    </edge>
    <edge id=":162468251_5" function="internal">
        <lane id=":162468251_5_0" index="0" disallow="tram rail_urban rail rail_electric rail_fast ship cable_car subway" speed="8.33" length="15.12" shape="19170.33,12732.73 19185.32,12730.82"/>
    </edge>
    <edge id=":162491752_0" function="internal">
        <lane id=":162491752_0_0" index="0" disallow="tram rail_urban rail rail_electric rail_fast ship cable_car subway" speed="3.65" length="4.67" shape="20940.65,12374.48 20940.70,12373.04 20941.17,12372.28 20942.06,12372.20 20943.37,12372.80"/>
    </edge>
    <edge id=":164641499_0" function="internal">
        <lane id=":164641499_0_0" index="0" disallow="tram rail_urban rail rail_electric rail_fast ship cable_car subway" speed="8.17" length="11.10" shape="20153.81,13296.61 20151.63,13299.22 20150.40,13301.74 20150.11,13304.18 20150.77,13306.53"/>
    </edge>
    <edge id=":164641499_1" function="internal">
        <lane id=":164641499_1_0" index="0" disallow="tram rail_urban rail rail_electric rail_fast ship cable_car subway" speed="5.86" length="9.12" shape="20144.50,13293.03 20145.90,13295.29 20147.54,13296.26 20149.43,13295.94 20151.55,13294.35"/>
    </edge>
    <edge id=":164641499_2" function="internal">
        <lane id=":164641499_2_0" index="0" disallow="tram rail_urban rail rail_electric rail_fast ship cable_car subway" speed="8.33" length="14.88" shape="20144.50,13293.03 20150.77,13306.53"/>
    </edge>
    <edge id=":164641499_3" function="internal">
        <lane id=":164641499_3_0" index="0" disallow="tram rail_urban rail rail_electric rail_fast ship cable_car subway" speed="8.33" length="13.13" shape="20143.20,13304.45 20145.58,13301.97 20147.45,13299.48 20149.27,13296.95 20151.55,13294.35"/>
    </edge>
    <edge id=":164641499_4" function="internal">
        <lane id=":164641499_4_0" index="0" disallow="tram rail_urban rail rail_electric rail_fast ship cable_car subway" speed="6.16" length="9.63" shape="20143.20,13304.45 20145.38,13303.06 20147.37,13302.94 20149.17,13304.10 20150.77,13306.53"/>
    </edge>
    <edge id=":179875837_0" function="internal">
        <lane id=":179875837_0_0" index="0" disallow="tram rail_urban rail rail_electric rail_fast ship cable_car subway" speed="3.65" length="4.67" shape="20062.76,13550.13 20061.72,13551.12 20060.85,13551.34 20060.16,13550.78 20059.64,13549.43"/>
    </edge>
    <edge id=":1814668313_0" function="internal">
        <lane id=":1814668313_0_0" index="0" disallow="tram rail_urban rail rail_electric rail_fast ship cable_car subway" speed="2.78" length="4.67" shape="19719.66,13864.54 19720.93,13865.22 19721.40,13865.98 19721.08,13866.81 19719.96,13867.72"/>
    </edge>
    <edge id=":21306261_0" function="internal">
        <lane id=":21306261_0_0" index="0" disallow="tram rail_urban rail rail_electric rail_fast ship cable_car subway" speed="8.33" length="11.11" shape="20966.11,12416.67 20960.36,12407.16"/>
    </edge>
    <edge id=":21306261_1" function="internal">
        <lane id=":21306261_1_0" index="0" disallow="tram rail_urban rail rail_electric rail_fast ship cable_car subway" speed="8.33" length="10.96" shape="20963.14,12405.57 20968.81,12414.95"/>
    </edge>
    <edge id=":21306261_2" function="internal">
        <lane id=":21306261_2_0" index="0" disallow="tram rail_urban rail rail_electric rail_fast ship cable_car subway" speed="6.51" length="9.03" shape="20958.29,12414.80 20960.24,12413.28 20961.23,12411.50 20961.28,12409.46 20960.36,12407.16"/>
    </edge>
    <edge id=":21306261_3" function="internal">
        <lane id=":21306261_3_0" index="0" disallow="tram rail_urban rail rail_electric rail_fast ship cable_car subway" speed="7.44" length="11.70" shape="20958.29,12414.80 20961.81,12413.17 20964.73,12412.65 20967.07,12413.25 20968.81,12414.95"/>
    </edge>
    <edge id=":2143522428_0" function="internal">
        <lane id=":2143522428_0_0" index="0" disallow="tram rail_urban rail rail_electric rail_fast ship cable_car subway" speed="8.33" length="8.41" shape="20668.09,13357.18 20660.49,13360.79"/>
    </edge>
    <edge id=":2143522428_1" function="internal">
        <lane id=":2143522428_1_0" index="0" disallow="tram rail_urban rail rail_electric rail_fast ship cable_car subway" speed="6.41" length="10.10" shape="20668.09,13357.18 20665.98,13357.63 20664.20,13356.82 20662.75,13354.77 20661.64,13351.47"/>
    </edge>
    <edge id=":2143522428_2" function="internal">
        <lane id=":2143522428_2_0" index="0" disallow="tram rail_urban rail rail_electric rail_fast ship cable_car subway" speed="6.53" length="7.57" shape="20659.09,13357.92 20660.63,13356.84 20661.56,13355.41 20661.90,13353.62 20661.64,13351.47"/>
    </edge>
    <edge id=":2143522428_3" function="internal">
        <lane id=":2143522428_3_0" index="0" disallow="tram rail_urban rail rail_electric rail_fast ship cable_car subway" speed="8.33" length="8.46" shape="20659.09,13357.92 20666.73,13354.29"/>
    </edge>
    <edge id=":21487232_0" function="internal">
        <lane id=":21487232_0_0" index="0" disallow="tram rail_urban rail rail_electric rail_fast ship cable_car subway" speed="5.96" length="9.09" shape="20016.75,14008.79 20015.31,14006.61 20013.64,14005.64 20011.72,14005.89 20009.56,14007.36"/>
    </edge>
    <edge id=":21487232_1" function="internal">
        <lane id=":21487232_1_0" index="0" disallow="tram rail_urban rail rail_electric rail_fast ship cable_car subway" speed="13.89" length="18.04" shape="20016.75,14008.79 20008.78,13992.60"/>
    </edge>
    <edge id=":21487232_2" function="internal">
        <lane id=":21487232_2_0" index="0" disallow="tram rail_urban rail rail_electric rail_fast ship cable_car subway" speed="9.90" length="4.37" shape="20016.75,14008.79 20015.41,14004.63"/>
    </edge>
    <edge id=":21487232_12" function="internal">
        <lane id=":21487232_12_0" index="0" disallow="tram rail_urban rail rail_electric rail_fast ship cable_car subway" speed="9.90" length="12.22" shape="20015.41,14004.63 20015.42,14000.71 20016.79,13997.03 20019.51,13993.60"/>
    </edge>
    <edge id=":21487232_3" function="internal">
        <lane id=":21487232_3_0" index="0" disallow="tram rail_urban rail rail_electric rail_fast ship cable_car subway" speed="8.69" length="12.60" shape="20021.74,13995.89 20019.67,13998.50 20018.64,14001.29 20018.63,14004.27 20019.64,14007.43"/>
    </edge>
    <edge id=":21487232_4" function="internal">
        <lane id=":21487232_4_0" index="0" disallow="tram rail_urban rail rail_electric rail_fast ship cable_car subway" speed="13.89" length="16.73" shape="20021.74,13995.89 20009.56,14007.36"/>
    </edge>
    <edge id=":21487232_5" function="internal">
        <lane id=":21487232_5_0" index="0" disallow="tram rail_urban rail rail_electric rail_fast ship cable_car subway" speed="7.81" length="5.83" shape="20021.74,13995.89 20018.11,13998.44 20016.72,13998.56"/>
    </edge>
    <edge id=":21487232_13" function="internal">
        <lane id=":21487232_13_0" index="0" disallow="tram rail_urban rail rail_electric rail_fast ship cable_car subway" speed="7.81" length="10.72" shape="20016.72,13998.56 20014.74,13998.74 20011.63,13996.79 20008.78,13992.60"/>
    </edge>
    <edge id=":21487232_6" function="internal">
        <lane id=":21487232_6_0" index="0" disallow="tram rail_urban rail rail_electric rail_fast ship cable_car subway" speed="6.26" length="10.17" shape="20011.63,13991.15 20013.42,13993.84 20015.33,13995.14 20017.36,13995.06 20019.51,13993.60"/>
    </edge>
    <edge id=":21487232_7" function="internal">
        <lane id=":21487232_7_0" index="0" disallow="tram rail_urban rail rail_electric rail_fast ship cable_car subway" speed="13.89" length="18.15" shape="20011.63,13991.15 20019.64,14007.43"/>
    </edge>
    <edge id=":21487232_8" function="internal">
        <lane id=":21487232_8_0" index="0" disallow="tram rail_urban rail rail_electric rail_fast ship cable_car subway" speed="9.89" length="5.41" shape="20011.63,13991.15 20013.38,13995.83 20013.40,13996.25"/>
    </edge>
    <edge id=":21487232_14" function="internal">
        <lane id=":21487232_14_0" index="0" disallow="tram rail_urban rail rail_electric rail_fast ship cable_car subway" speed="9.89" length="12.31" shape="20013.40,13996.25 20013.61,14000.09 20012.34,14003.94 20009.56,14007.36"/>
    </edge>
    <edge id=":21487232_9" function="internal">
        <lane id=":21487232_9_0" index="0" disallow="tram rail_urban rail rail_electric rail_fast ship cable_car subway" speed="8.05" length="11.45" shape="20005.26,14002.63 20007.69,13999.99 20009.09,13997.44 20009.45,13994.97 20008.78,13992.60"/>
    </edge>
    <edge id=":21487232_10" function="internal">
        <lane id=":21487232_10_0" index="0" disallow="tram rail_urban rail rail_electric rail_fast ship cable_car subway" speed="13.89" length="16.93" shape="20005.26,14002.63 20009.61,13999.31 20013.38,13997.30 20016.65,13995.69 20019.51,13993.60"/>
    </edge>
    <edge id=":21487232_11" function="internal">
        <lane id=":21487232_11_0" index="0" disallow="tram rail_urban rail rail_electric rail_fast ship cable_car subway" speed="7.57" length="4.30" shape="20007.41,14004.99 20010.97,14002.58"/>
    </edge>
    <edge id=":21487232_15" function="internal">
        <lane id=":21487232_15_0" index="0" disallow="tram rail_urban rail rail_electric rail_fast ship cable_car subway" speed="7.57" length="11.17" shape="20010.97,14002.58 20011.09,14002.50 20014.35,14002.07 20017.20,14003.72 20019.64,14007.43"/>
    </edge>
    <edge id=":2402066887_0" function="internal">
        <lane id=":2402066887_0_0" index="0" disallow="tram rail_urban rail rail_electric rail_fast ship cable_car subway" speed="3.65" length="4.67" shape="19827.50,14045.75 19826.08,14045.96 19825.25,14045.62 19825.01,14044.76 19825.38,14043.37"/>
    </edge>
    <edge id=":243512230_0" function="internal">
        <lane id=":243512230_0_0" index="0" disallow="tram rail_urban rail rail_electric rail_fast ship cable_car subway" speed="8.33" length="8.47" shape="20155.32,12796.95 20153.22,12798.16 20152.09,12799.43 20151.34,12801.09 20150.43,12803.44"/>
    </edge>
    <edge id=":243512230_1" function="internal">
        <lane id=":243512230_1_0" index="0" disallow="tram rail_urban rail rail_electric rail_fast ship cable_car subway" speed="8.33" length="8.42" shape="20145.79,12793.16 20148.36,12794.01 20150.59,12794.45 20152.46,12794.46 20153.98,12794.05"/>
    </edge>
    <edge id=":243512230_2" function="internal">
        <lane id=":243512230_2_0" index="0" disallow="tram rail_urban rail rail_electric rail_fast ship cable_car subway" speed="7.58" length="12.96" shape="20145.79,12793.16 20148.98,12794.93 20150.82,12797.23 20151.30,12800.07 20150.43,12803.44"/>
    </edge>
    <edge id=":243512231_0" function="internal">
        <lane id=":243512231_0_0" index="0" disallow="tram rail_urban rail rail_electric rail_fast ship cable_car subway" speed="8.33" length="8.04" shape="20139.90,12807.76 20137.58,12806.94 20135.51,12806.54 20133.69,12806.58 20132.11,12807.05"/>
    </edge>
    <edge id=":243512231_1" function="internal">
        <lane id=":243512231_1_0" index="0" disallow="tram rail_urban rail rail_electric rail_fast ship cable_car subway" speed="7.68" length="12.70" shape="20139.90,12807.76 20137.04,12805.99 20135.42,12803.66 20135.03,12800.76 20135.89,12797.29"/>
    </edge>
    <edge id=":243512231_2" function="internal">
        <lane id=":243512231_2_0" index="0" disallow="tram rail_urban rail rail_electric rail_fast ship cable_car subway" speed="8.33" length="8.95" shape="20130.75,12804.15 20132.97,12802.87 20134.19,12801.54 20134.97,12799.79 20135.89,12797.29"/>
    </edge>
    <edge id=":243512241_0" function="internal">
        <lane id=":243512241_0_0" index="0" disallow="tram rail_urban rail rail_electric rail_fast ship cable_car subway" speed="8.33" length="8.49" shape="20146.36,12813.03 20145.21,12810.87 20144.01,12809.63 20142.41,12808.80 20140.08,12807.84"/>
    </edge>
    <edge id=":243512241_1" function="internal">
        <lane id=":243512241_1_0" index="0" disallow="tram rail_urban rail rail_electric rail_fast ship cable_car subway" speed="8.33" length="8.30" shape="20150.31,12803.71 20149.41,12806.18 20148.94,12808.35 20148.90,12810.20 20149.29,12811.74"/>
    </edge>
    <edge id=":243512241_2" function="internal">
        <lane id=":243512241_2_0" index="0" disallow="tram rail_urban rail rail_electric rail_fast ship cable_car subway" speed="7.57" length="12.59" shape="20150.31,12803.71 20148.53,12806.66 20146.23,12808.34 20143.41,12808.73 20140.08,12807.84"/>
    </edge>
    <edge id=":2560506733_0" function="internal">
        <lane id=":2560506733_0_0" index="0" disallow="tram rail_urban rail rail_electric rail_fast ship cable_car subway" speed="3.65" length="4.67" shape="20965.71,12341.94 20964.27,12341.82 20963.54,12341.31 20963.50,12340.42 20964.17,12339.14"/>
    </edge>
    <edge id=":262485064_0" function="internal">
        <lane id=":262485064_0_0" index="0" disallow="tram rail_urban rail rail_electric rail_fast ship cable_car subway" speed="11.11" length="0.10" shape="19901.83,14109.33 19901.83,14109.33"/>
    </edge>
    <edge id=":262485064_1" function="internal">
        <lane id=":262485064_1_0" index="0" disallow="tram rail_urban rail rail_electric rail_fast ship cable_car subway" speed="11.11" length="0.10" shape="19899.65,14106.99 19899.65,14106.99"/>
    </edge>
    <edge id=":267214998_0" function="internal">
        <lane id=":267214998_0_0" index="0" disallow="tram rail_urban rail rail_electric rail_fast ship cable_car subway" speed="8.33" length="23.75" shape="20182.89,13052.46 20161.54,13062.88"/>
    </edge>
    <edge id=":267214998_1" function="internal">
        <lane id=":267214998_1_0" index="0" allow="bus coach" speed="8.33" length="23.52" shape="20160.20,13059.93 20181.32,13049.57"/>
    </edge>
    <edge id=":267214998_2" function="internal">
        <lane id=":267214998_2_0" index="0" disallow="tram rail_urban rail rail_electric rail_fast ship cable_car subway" speed="3.66" length="4.73" shape="20160.20,13059.93 20161.64,13060.16 20162.34,13060.73 20162.31,13061.64 20161.54,13062.88"/>
    </edge>
    <edge id=":268466879_0" function="internal">
        <lane id=":268466879_0_0" index="0" disallow="tram rail_urban rail rail_electric rail_fast ship cable_car subway" speed="6.73" length="7.93" shape="20278.26,12966.77 20280.42,12966.94 20282.23,12966.48 20283.71,12965.40 20284.86,12963.69"/>
    </edge>
    <edge id=":268466879_1" function="internal">
        <lane id=":268466879_1_0" index="0" disallow="tram rail_urban rail rail_electric rail_fast ship cable_car subway" speed="13.89" length="8.18" shape="20278.26,12966.77 20280.94,12967.37 20282.74,12967.94 20284.43,12968.78 20286.79,12970.19"/>
        <lane id=":268466879_1_1" index="1" disallow="tram rail_urban rail rail_electric rail_fast ship cable_car subway" speed="13.89" length="8.18" shape="20277.61,12969.90 20279.97,12970.43 20281.56,12970.94 20283.05,12971.68 20285.13,12972.93"/>
        <lane id=":268466879_1_2" index="2" disallow="tram rail_urban rail rail_electric rail_fast ship cable_car subway" speed="13.89" length="8.18" shape="20276.95,12973.03 20279.00,12973.49 20280.38,12973.94 20281.67,12974.59 20283.47,12975.66"/>
    </edge>
    <edge id=":268466887_0" function="internal">
        <lane id=":268466887_0_0" index="0" disallow="tram rail_urban rail rail_electric rail_fast ship cable_car subway" speed="13.89" length="8.01" shape="20387.49,12673.84 20386.93,12676.18 20386.88,12677.87 20386.80,12679.55 20386.10,12681.84"/>
        <lane id=":268466887_0_1" index="1" disallow="tram rail_urban rail rail_electric rail_fast ship cable_car subway" speed="13.89" length="8.01" shape="20384.47,12672.77 20383.93,12675.06 20383.90,12676.71 20383.83,12678.35 20383.15,12680.59"/>
        <lane id=":268466887_0_2" index="2" disallow="tram rail_urban rail rail_electric rail_fast ship cable_car subway" speed="13.89" length="8.01" shape="20384.47,12672.77 20383.47,12674.85 20382.43,12676.09 20381.34,12677.31 20380.21,12679.34"/>
    </edge>
    <edge id=":269476781_0" function="internal">
        <lane id=":269476781_0_0" index="0" disallow="tram rail_urban rail rail_electric rail_fast ship cable_car subway" speed="3.65" length="4.67" shape="19911.88,13953.21 19912.08,13951.78 19912.62,13951.07 19913.51,13951.08 19914.76,13951.81"/>
    </edge>
    <edge id=":269476782_0" function="internal">
        <lane id=":269476782_0_0" index="0" disallow="tram rail_urban rail rail_electric rail_fast ship cable_car subway" speed="13.89" length="14.50" shape="19970.62,14044.33 19960.06,14054.26"/>
    </edge>
    <edge id=":269476782_1" function="internal">
        <lane id=":269476782_1_0" index="0" disallow="tram rail_urban rail rail_electric rail_fast ship cable_car subway" speed="8.48" length="3.93" shape="19970.62,14044.33 19967.33,14046.48"/>
    </edge>
    <edge id=":269476782_6" function="internal">
        <lane id=":269476782_6_0" index="0" disallow="tram rail_urban rail rail_electric rail_fast ship cable_car subway" speed="8.48" length="13.45" shape="19967.33,14046.48 19967.18,14046.58 19963.60,14046.76 19959.89,14044.87 19956.05,14040.90"/>
    </edge>
    <edge id=":269476782_2" function="internal">
        <lane id=":269476782_2_0" index="0" disallow="tram rail_urban rail rail_electric rail_fast ship cable_car subway" speed="6.30" length="9.10" shape="19958.58,14038.93 19960.42,14040.72 19962.33,14041.42 19964.29,14041.04 19966.32,14039.59"/>
    </edge>
    <edge id=":269476782_3" function="internal">
        <lane id=":269476782_3_0" index="0" disallow="tram rail_urban rail rail_electric rail_fast ship cable_car subway" speed="9.08" length="17.03" shape="19958.58,14038.93 19961.46,14043.47 19962.67,14047.53 19962.20,14051.13 19960.06,14054.26"/>
    </edge>
    <edge id=":269476782_4" function="internal">
        <lane id=":269476782_4_0" index="0" disallow="tram rail_urban rail rail_electric rail_fast ship cable_car subway" speed="7.79" length="12.30" shape="19957.83,14051.96 19959.18,14049.85 19959.33,14047.30 19958.29,14044.32 19956.05,14040.90"/>
    </edge>
    <edge id=":269476782_5" function="internal">