<?xml version="1.0" ?>
<additional>
  <tlLogic id="21487232" type="static" programID="fixed_60" offset="0">
    <phase duration="60" state="GGGrrrrrrrrr"/>
    <phase duration="3" state="yyyrrrrrrrrr"/>
    <phase duration="60" state="rrrGGGrrrrrr"/>
    <phase duration="3" state="rrryyyrrrrrr"/>
    <phase duration="60" state="rrrrrrrrrGGG"/>
    <phase duration="3" state="rrrrrrrrryyy"/>
    <phase duration="60" state="rrrrrrGGGrrr"/>
    <phase duration="3" state="rrrrrryyyrrr"/>
  </tlLogic>
  <tlLogic id="21487232" type="static" programID="rl_program" offset="0">
    <phase duration="10" state="GGGrrrrrrrrr"/>
    <phase duration="3" state="yyyrrrrrrrrr"/>
    <phase duration="10" state="rrrGGGrrrrrr"/>
    <phase duration="3" state="rrryyyrrrrrr"/>
    <phase duration="10" state="rrrrrrrrrGGG"/>
    <phase duration="3" state="rrrrrrrrryyy"/>
    <phase duration="10" state="rrrrrrGGGrrr"/>
    <phase duration="3" state="rrrrrryyyrrr"/>
  </tlLogic>
  <tlLogic id="29217280" type="static" programID="fixed_60" offset="0">
    <phase duration="60" state="rrrrrrGG"/>
    <phase duration="3" state="rrrrrryy"/>
    <phase duration="60" state="rrrGGGrr"/>
    <phase duration="3" state="rrryyyrr"/>
    <phase duration="60" state="GGGrrrrr"/>
    <phase duration="3" state="yyyrrrrr"/>
  </tlLogic>
  <tlLogic id="29217280" type="static" programID="rl_program" offset="0">
    <phase duration="10" state="rrrrrrGG"/>
    <phase duration="3" state="rrrrrryy"/>
    <phase duration="10" state="rrrGGGrr"/>
    <phase duration="3" state="rrryyyrr"/>
    <phase duration="10" state="GGGrrrrr"/>
    <phase duration="3" state="yyyrrrrr"/>
  </tlLogic>
  <tlLogic id="29217293" type="static" programID="fixed_60" offset="0">
    <phase duration="60" state="GGrrrrrr"/>
    <phase duration="3" state="yyrrrrrr"/>
    <phase duration="60" state="rrrrrGGG"/>
    <phase duration="3" state="rrrrryyy"/>
    <phase duration="60" state="rrGGGrrr"/>
    <phase duration="3" state="rryyyrrr"/>
  </tlLogic>
  <tlLogic id="29217293" type="static" programID="rl_program" offset="0">
    <phase duration="10" state="GGrrrrrr"/>
    <phase duration="3" state="yyrrrrrr"/>
    <phase duration="10" state="rrrrrGGG"/>
    <phase duration="3" state="rrrrryyy"/>
    <phase duration="10" state="rrGGGrrr"/>
    <phase duration="3" state="rryyyrrr"/>
  </tlLogic>
  <tlLogic id="cluster_1631218251_1631218256_174069318_1769380589_1769380594_1769380605_248511412_27555219_29789746_5181297165_5181297166_5181297167" type="static" programID="fixed_60" offset="0">
    <phase duration="60" state="rrrrGGGrrrrrr"/>
    <phase duration="3" state="rrrryyyrrrrrr"/>
    <phase duration="60" state="rrrrrrrrrrGGG"/>
    <phase duration="3" state="rrrrrrrrrryyy"/>
    <phase duration="60" state="GGGGrrrrrrrrr"/>
    <phase duration="3" state="yyyyrrrrrrrrr"/>
    <phase duration="60" state="rrrrrrrGGGrrr"/>
    <phase duration="3" state="rrrrrrryyyrrr"/>
  </tlLogic>
  <tlLogic id="cluster_1631218251_1631218256_174069318_1769380589_1769380594_1769380605_248511412_27555219_29789746_5181297165_5181297166_5181297167" type="static" programID="rl_program" offset="0">
    <phase duration="10" state="rrrrGGGrrrrrr"/>
    <phase duration="3" state="rrrryyyrrrrrr"/>
    <phase duration="10" state="rrrrrrrrrrGGG"/>
    <phase duration="3" state="rrrrrrrrrryyy"/>
    <phase duration="10" state="GGGGrrrrrrrrr"/>
    <phase duration="3" state="yyyyrrrrrrrrr"/>
    <phase duration="10" state="rrrrrrrGGGrrr"/>
    <phase duration="3" state="rrrrrrryyyrrr"/>
  </tlLogic>
  <tlLogic id="cluster_1669237292_29276217_3255591863_3255591865_5727178259_5727178263_5727178264" type="static" programID="fixed_60" offset="0">
    <phase duration="60" state="rrrGGrr"/>
    <phase duration="3" state="rrryyrr"/>
    <phase duration="60" state="rrrrrGG"/>
    <phase duration="3" state="rrrrryy"/>
    <phase duration="60" state="GGGrrrr"/>
    <phase duration="3" state="yyyrrrr"/>
  </tlLogic>
  <tlLogic id="cluster_1669237292_29276217_3255591863_3255591865_5727178259_5727178263_5727178264" type="static" programID="rl_program" offset="0">
    <phase duration="10" state="rrrGGrr"/>
    <phase duration="3" state="rrryyrr"/>
    <phase duration="10" state="rrrrrGG"/>
    <phase duration="3" state="rrrrryy"/>
    <phase duration="10" state="GGGrrrr"/>
    <phase duration="3" state="yyyrrrr"/>
  </tlLogic>
  <tlLogic id="cluster_1814668307_26517409" type="static" programID="fixed_60" offset="0">
    <phase duration="60" state="GGrrrr"/>
    <phase duration="3" state="yyrrrr"/>
    <phase duration="60" state="rrGGrr"/>
    <phase duration="3" state="rryyrr"/>
    <phase duration="60" state="rrrrGG"/>
    <phase duration="3" state="rrrryy"/>
  </tlLogic>
  <tlLogic id="cluster_1814668307_26517409" type="static" programID="rl_program" offset="0">
    <phase duration="10" state="GGrrrr"/>
    <phase duration="3" state="yyrrrr"/>
    <phase duration="10" state="rrGGrr"/>
    <phase duration="3" state="rryyrr"/>
    <phase duration="10" state="rrrrGG"/>
    <phase duration="3" state="rrrryy"/>
  </tlLogic>
  <tlLogic id="cluster_21306262_7996816798_7996816799_7996816800_7996816801_7996816802_7996816803_7996816804_7996816805" type="static" programID="fixed_60" offset="0">
    <phase duration="60" state="rrrGGGrrrrrr"/>
    <phase duration="3" state="rrryyyrrrrrr"/>
    <phase duration="60" state="GGGrrrrrrrrr"/>
    <phase duration="3" state="yyyrrrrrrrrr"/>
    <phase duration="60" state="rrrrrrrrrGGG"/>
    <phase duration="3" state="rrrrrrrrryyy"/>
    <phase duration="60" state="rrrrrrGGGrrr"/>
    <phase duration="3" state="rrrrrryyyrrr"/>
  </tlLogic>
  <tlLogic id="cluster_21306262_7996816798_7996816799_7996816800_7996816801_7996816802_7996816803_7996816804_7996816805" type="static" programID="rl_program" offset="0">
    <phase duration="10" state="rrrGGGrrrrrr"/>
    <phase duration="3" state="rrryyyrrrrrr"/>
    <phase duration="10" state="GGGrrrrrrrrr"/>
    <phase duration="3" state="yyyrrrrrrrrr"/>
    <phase duration="10" state="rrrrrrrrrGGG"/>
    <phase duration="3" state="rrrrrrrrryyy"/>
    <phase duration="10" state="rrrrrrGGGrrr"/>
    <phase duration="3" state="rrrrrryyyrrr"/>
  </tlLogic>
  <tlLogic id="cluster_21306263_2488165706_2488165710_455229737_6173027375_6173027376_6173027377" type="static" programID="fixed_60" offset="0">
    <phase duration="60" state="rrrrG"/>
    <phase duration="3" state="rrrry"/>
    <phase duration="60" state="rrrGr"/>
    <phase duration="3" state="rrryr"/>
  </tlLogic>
  <tlLogic id="cluster_21306263_2488165706_2488165710_455229737_6173027375_6173027376_6173027377" type="static" programID="rl_program" offset="0">
    <phase duration="10" state="rrrrG"/>
    <phase duration="3" state="rrrry"/>
    <phase duration="10" state="rrrGr"/>
    <phase duration="3" state="rrryr"/>
  </tlLogic>
  <tlLogic id="cluster_21487231_5984003378_5984003379_5984003380_5984003381_5984003382_5984003383_5984003384_5984004385" type="static" programID="fixed_60" offset="0">
    <phase duration="60" state="rrrGGGrrrrrr"/>
    <phase duration="3" state="rrryyyrrrrrr"/>
    <phase duration="60" state="rrrrrrrrrGGG"/>
    <phase duration="3" state="rrrrrrrrryyy"/>
    <phase duration="60" state="rrrrrrGGGrrr"/>
    <phase duration="3" state="rrrrrryyyrrr"/>
    <phase duration="60" state="GGGrrrrrrrrr"/>
    <phase duration="3" state="yyyrrrrrrrrr"/>
  </tlLogic>
  <tlLogic id="cluster_21487231_5984003378_5984003379_5984003380_5984003381_5984003382_5984003383_5984003384_5984004385" type="static" programID="rl_program" offset="0">
    <phase duration="10" state="rrrGGGrrrrrr"/>
    <phase duration="3" state="rrryyyrrrrrr"/>
    <phase duration="10" state="rrrrrrrrrGGG"/>
    <phase duration="3" state="rrrrrrrrryyy"/>
    <phase duration="10" state="rrrrrrGGGrrr"/>
    <phase duration="3" state="rrrrrryyyrrr"/>
    <phase duration="10" state="GGGrrrrrrrrr"/>
    <phase duration="3" state="yyyrrrrrrrrr"/>
  </tlLogic>
  <tlLogic id="cluster_21487234_268468777_3318578660_3318580661_3318580662_3318580664_3318580665_3318580666_3318580667_3318580668" type="static" programID="fixed_60" offset="0">
    <phase duration="60" state="rrGGrr"/>
    <phase duration="3" state="rryyrr"/>
    <phase duration="60" state="rrrrGG"/>
    <phase duration="3" state="rrrryy"/>
    <phase duration="60" state="GGrrrr"/>
    <phase duration="3" state="yyrrrr"/>
  </tlLogic>
  <tlLogic id="cluster_21487234_268468777_3318578660_3318580661_3318580662_3318580664_3318580665_3318580666_3318580667_3318580668" type="static" programID="rl_program" offset="0">
    <phase duration="10" state="rrGGrr"/>
    <phase duration="3" state="rryyrr"/>
    <phase duration="10" state="rrrrGG"/>
    <phase duration="3" state="rrrryy"/>
    <phase duration="10" state="GGrrrr"/>
    <phase duration="3" state="yyrrrr"/>
  </tlLogic>
  <tlLogic id="cluster_2338750572_29273064_29273065_2969769648_2969769650_3517793740_3517793745_3517793752_3517793774_3517793777_3517810994_3517810996" type="static" programID="fixed_60" offset="0">
    <phase duration="60" state="rrrrrrGrrrrrr"/>
    <phase duration="3" state="rrrrrryrrrrrr"/>
    <phase duration="60" state="rrrrrrrGrrrrr"/>
    <phase duration="3" state="rrrrrrryrrrrr"/>
    <phase duration="60" state="rrrrrrrrrrGGG"/>
    <phase duration="3" state="rrrrrrrrrryyy"/>
  </tlLogic>
  <tlLogic id="cluster_2338750572_29273064_29273065_2969769648_2969769650_3517793740_3517793745_3517793752_3517793774_3517793777_3517810994_3517810996" type="static" programID="rl_program" offset="0">
    <phase duration="10" state="rrrrrrGrrrrrr"/>
    <phase duration="3" state="rrrrrryrrrrrr"/>
    <phase duration="10" state="rrrrrrrGrrrrr"/>
    <phase duration="3" state="rrrrrrryrrrrr"/>
    <phase duration="10" state="rrrrrrrrrrGGG"/>
    <phase duration="3" state="rrrrrrrrrryyy"/>
  </tlLogic>
  <tlLogic id="cluster_2532164063_2532164065_2532164066_29789701_29789703_3329864109_3329864110_3329864111_769847930" type="static" programID="fixed_60" offset="0">
    <phase duration="60" state="G"/>
    <phase duration="3" state="y"/>
  </tlLogic>
  <tlLogic id="cluster_2532164063_2532164065_2532164066_29789701_29789703_3329864109_3329864110_3329864111_769847930" type="static" programID="rl_program" offset="0">
    <phase duration="10" state="G"/>
    <phase duration="3" state="y"/>
  </tlLogic>
  <tlLogic id="cluster_26764819_6171392282_6171392283_6171392284_6171392285_6171392286_6171392287_6171392288_6171392289" type="static" programID="fixed_60" offset="0">
    <phase duration="60" state="GGGrrrrrrrrr"/>
    <phase duration="3" state="yyyrrrrrrrrr"/>
    <phase duration="60" state="rrrrrrrrrGGG"/>
    <phase duration="3" state="rrrrrrrrryyy"/>
    <phase duration="60" state="rrrrrrGGGrrr"/>
    <phase duration="3" state="rrrrrryyyrrr"/>
    <phase duration="60" state="rrrGGGrrrrrr"/>
    <phase duration="3" state="rrryyyrrrrrr"/>
  </tlLogic>
  <tlLogic id="cluster_26764819_6171392282_6171392283_6171392284_6171392285_6171392286_6171392287_6171392288_6171392289" type="static" programID="rl_program" offset="0">
    <phase duration="10" state="GGGrrrrrrrrr"/>
    <phase duration="3" state="yyyrrrrrrrrr"/>
    <phase duration="10" state="rrrrrrrrrGGG"/>
    <phase duration="3" state="rrrrrrrrryyy"/>
    <phase duration="10" state="rrrrrrGGGrrr"/>
    <phase duration="3" state="rrrrrryyyrrr"/>
    <phase duration="10" state="rrrGGGrrrrrr"/>
    <phase duration="3" state="rrryyyrrrrrr"/>
  </tlLogic>
  <tlLogic id="cluster_26764821_4243540359_455961356_5183624209_6086440338_6171392296_6171392297_6171392298_6171392299" type="static" programID="fixed_60" offset="0">
    <phase duration="60" state="GGGrrrrrrrrr"/>
    <phase duration="3" state="yyyrrrrrrrrr"/>
    <phase duration="60" state="rrrGGGrrrrrr"/>
    <phase duration="3" state="rrryyyrrrrrr"/>
    <phase duration="60" state="rrrrrrGGGrrr"/>
    <phase duration="3" state="rrrrrryyyrrr"/>
    <phase duration="60" state="rrrrrrrrrGGG"/>
    <phase duration="3" state="rrrrrrrrryyy"/>
  </tlLogic>
  <tlLogic id="cluster_26764821_4243540359_455961356_5183624209_6086440338_6171392296_6171392297_6171392298_6171392299" type="static" programID="rl_program" offset="0">
    <phase duration="10" state="GGGrrrrrrrrr"/>
    <phase duration="3" state="yyyrrrrrrrrr"/>
    <phase duration="10" state="rrrGGGrrrrrr"/>
    <phase duration="3" state="rrryyyrrrrrr"/>
    <phase duration="10" state="rrrrrrGGGrrr"/>
    <phase duration="3" state="rrrrrryyyrrr"/>
    <phase duration="10" state="rrrrrrrrrGGG"/>
    <phase duration="3" state="rrrrrrrrryyy"/>
  </tlLogic>
  <tlLogic id="cluster_26960761_4282085209_6206092157_6206092158_6206092160_6206092161_6206092162_6206092163_6206092164" type="static" programID="fixed_60" offset="0">
    <phase duration="60" state="rrrGGGrrrrrr"/>
    <phase duration="3" state="rrryyyrrrrrr"/>
    <phase duration="60" state="rrrrrrGGGrrr"/>
    <phase duration="3" state="rrrrrryyyrrr"/>
    <phase duration="60" state="rrrrrrrrrGGG"/>
    <phase duration="3" state="rrrrrrrrryyy"/>
    <phase duration="60" state="GGGrrrrrrrrr"/>
    <phase duration="3" state="yyyrrrrrrrrr"/>
  </tlLogic>
  <tlLogic id="cluster_26960761_4282085209_6206092157_6206092158_6206092160_6206092161_6206092162_6206092163_6206092164" type="static" programID="rl_program" offset="0">
    <phase duration="10" state="rrrGGGrrrrrr"/>
    <phase duration="3" state="rrryyyrrrrrr"/>
    <phase duration="10" state="rrrrrrGGGrrr"/>
    <phase duration="3" state="rrrrrryyyrrr"/>
    <phase duration="10" state="rrrrrrrrrGGG"/>
    <phase duration="3" state="rrrrrrrrryyy"/>
    <phase duration="10" state="GGGrrrrrrrrr"/>
    <phase duration="3" state="yyyrrrrrrrrr"/>
  </tlLogic>
  <tlLogic id="cluster_27555221_29276746_3900230240_3900230242_3900230244_3900230245_3900230247_3900230858_3900230859_3900230860_3900230867_3900230869" type="static" programID="fixed_60" offset="0">
    <phase duration="60" state="GGrrrrrrrrr"/>
    <phase duration="3" state="yyrrrrrrrrr"/>
    <phase duration="60" state="rrrrrGGGrrr"/>
    <phase duration="3" state="rrrrryyyrrr"/>
    <phase duration="60" state="rrrrrrrrGGG"/>
    <phase duration="3" state="rrrrrrrryyy"/>
    <phase duration="60" state="rrGGGrrrrrr"/>
    <phase duration="3" state="rryyyrrrrrr"/>
  </tlLogic>
  <tlLogic id="cluster_27555221_29276746_3900230240_3900230242_3900230244_3900230245_3900230247_3900230858_3900230859_3900230860_3900230867_3900230869" type="static" programID="rl_program" offset="0">
    <phase duration="10" state="GGrrrrrrrrr"/>
    <phase duration="3" state="yyrrrrrrrrr"/>
    <phase duration="10" state="rrrrrGGGrrr"/>
    <phase duration="3" state="rrrrryyyrrr"/>
    <phase duration="10" state="rrrrrrrrGGG"/>
    <phase duration="3" state="rrrrrrrryyy"/>
    <phase duration="10" state="rrGGGrrrrrr"/>
    <phase duration="3" state="rryyyrrrrrr"/>
  </tlLogic>
  <tlLogic id="cluster_29216564_5941363173" type="static" programID="fixed_60" offset="0">
    <phase duration="60" state="GGGrrrrrrrrr"/>
    <phase duration="3" state="yyyrrrrrrrrr"/>
    <phase duration="60" state="rrrGGGrrrrrr"/>
    <phase duration="3" state="rrryyyrrrrrr"/>
    <phase duration="60" state="rrrrrrGGGrrr"/>
    <phase duration="3" state="rrrrrryyyrrr"/>
    <phase duration="60" state="rrrrrrrrrGGG"/>
    <phase duration="3" state="rrrrrrrrryyy"/>
  </tlLogic>
  <tlLogic id="cluster_29216564_5941363173" type="static" programID="rl_program" offset="0">
    <phase duration="10" state="GGGrrrrrrrrr"/>
    <phase duration="3" state="yyyrrrrrrrrr"/>
    <phase duration="10" state="rrrGGGrrrrrr"/>
    <phase duration="3" state="rrryyyrrrrrr"/>
    <phase duration="10" state="rrrrrrGGGrrr"/>
    <phase duration="3" state="rrrrrryyyrrr"/>
    <phase duration="10" state="rrrrrrrrrGGG"/>
    <phase duration="3" state="rrrrrrrrryyy"/>
  </tlLogic>
  <tlLogic id="cluster_29216569_29216576_5904427920_5904427921_5904427922_5904427923_5904427924_5904427925_5904427926_5904427927_5904427928_730936571" type="static" programID="fixed_60" offset="0">
    <phase duration="60" state="GGGrrrrrrrrrrr"/>
    <phase duration="3" state="yyyrrrrrrrrrrr"/>
    <phase duration="60" state="rrrrrrrGGGrrrr"/>
    <phase duration="3" state="rrrrrrryyyrrrr"/>
    <phase duration="60" state="rrrrrrrrrrGGGG"/>
    <phase duration="3" state="rrrrrrrrrryyyy"/>
    <phase duration="60" state="rrrGGGGrrrrrrr"/>
    <phase duration="3" state="rrryyyyrrrrrrr"/>
  </tlLogic>
  <tlLogic id="cluster_29216569_29216576_5904427920_5904427921_5904427922_5904427923_5904427924_5904427925_5904427926_5904427927_5904427928_730936571" type="static" programID="rl_program" offset="0">
    <phase duration="10" state="GGGrrrrrrrrrrr"/>
    <phase duration="3" state="yyyrrrrrrrrrrr"/>
    <phase duration="10" state="rrrrrrrGGGrrrr"/>
    <phase duration="3" state="rrrrrrryyyrrrr"/>
    <phase duration="10" state="rrrrrrrrrrGGGG"/>
    <phase duration="3" state="rrrrrrrrrryyyy"/>
    <phase duration="10" state="rrrGGGGrrrrrrr"/>
    <phase duration="3" state="rrryyyyrrrrrrr"/>
  </tlLogic>
  <tlLogic id="cluster_29217317_5960176652_5960176653_5960176654_5960176655_5960176656_5960176657_5960176658_5960176659" type="static" programID="fixed_60" offset="0">
    <phase duration="60" state="rrrGGGrrrrrr"/>
    <phase duration="3" state="rrryyyrrrrrr"/>
    <phase duration="60" state="GGGrrrrrrrrr"/>
    <phase duration="3" state="yyyrrrrrrrrr"/>
    <phase duration="60" state="rrrrrrGGGrrr"/>
    <phase duration="3" state="rrrrrryyyrrr"/>
    <phase duration="60" state="rrrrrrrrrGGG"/>
    <phase duration="3" state="rrrrrrrrryyy"/>
  </tlLogic>
  <tlLogic id="cluster_29217317_5960176652_5960176653_5960176654_5960176655_5960176656_5960176657_5960176658_5960176659" type="static" programID="rl_program" offset="0">
    <phase duration="10" state="rrrGGGrrrrrr"/>
    <phase duration="3" state="rrryyyrrrrrr"/>
    <phase duration="10" state="GGGrrrrrrrrr"/>
    <phase duration="3" state="yyyrrrrrrrrr"/>
    <phase duration="10" state="rrrrrrGGGrrr"/>
    <phase duration="3" state="rrrrrryyyrrr"/>
    <phase duration="10" state="rrrrrrrrrGGG"/>
    <phase duration="3" state="rrrrrrrrryyy"/>
  </tlLogic>
  <tlLogic id="cluster_29218287_29218288_3900136262_3900136271_471376392_471376509" type="static" programID="fixed_60" offset="0">
    <phase duration="60" state="rrrrrrGGG"/>
    <phase duration="3" state="rrrrrryyy"/>
    <phase duration="60" state="GGGrrrrrr"/>
    <phase duration="3" state="yyyrrrrrr"/>
    <phase duration="60" state="rrrGGGrrr"/>
    <phase duration="3" state="rrryyyrrr"/>
  </tlLogic>
  <tlLogic id="cluster_29218287_29218288_3900136262_3900136271_471376392_471376509" type="static" programID="rl_program" offset="0">
    <phase duration="10" state="rrrrrrGGG"/>
    <phase duration="3" state="rrrrrryyy"/>
    <phase duration="10" state="GGGrrrrrr"/>
    <phase duration="3" state="yyyrrrrrr"/>
    <phase duration="10" state="rrrGGGrrr"/>
    <phase duration="3" state="rrryyyrrr"/>
  </tlLogic>
  <tlLogic id="cluster_29218326_7473379293_7473379294_7473379295_7473379296_7473379297_7473379298_7473379299_7473379300" type="static" programID="fixed_60" offset="0">
    <phase duration="60" state="rrrGGGrrrrrr"/>
    <phase duration="3" state="rrryyyrrrrrr"/>
    <phase duration="60" state="rrrrrrGGGrrr"/>
    <phase duration="3" state="rrrrrryyyrrr"/>
    <phase duration="60" state="rrrrrrrrrGGG"/>
    <phase duration="3" state="rrrrrrrrryyy"/>
    <phase duration="60" state="GGGrrrrrrrrr"/>
    <phase duration="3" state="yyyrrrrrrrrr"/>
  </tlLogic>
  <tlLogic id="cluster_29218326_7473379293_7473379294_7473379295_7473379296_7473379297_7473379298_7473379299_7473379300" type="static" programID="rl_program" offset="0">
    <phase duration="10" state="rrrGGGrrrrrr"/>
    <phase duration="3" state="rrryyyrrrrrr"/>
    <phase duration="10" state="rrrrrrGGGrrr"/>
    <phase duration="3" state="rrrrrryyyrrr"/>
    <phase duration="10" state="rrrrrrrrrGGG"/>
    <phase duration="3" state="rrrrrrrrryyy"/>
    <phase duration="10" state="GGGrrrrrrrrr"/>
    <phase duration="3" state="yyyrrrrrrrrr"/>
  </tlLogic>
  <tlLogic id="cluster_29276745_6171369114_6171369115_6171369116_6171369117_6171369118_6171369119_6171369120_6171369121" type="static" programID="fixed_60" offset="0">
    <phase duration="60" state="rrrGGGrrrrrr"/>
    <phase duration="3" state="rrryyyrrrrrr"/>
    <phase duration="60" state="GGGrrrrrrrrr"/>
    <phase duration="3" state="yyyrrrrrrrrr"/>
    <phase duration="60" state="rrrrrrrrrGGG"/>
    <phase duration="3" state="rrrrrrrrryyy"/>
    <phase duration="60" state="rrrrrrGGGrrr"/>
    <phase duration="3" state="rrrrrryyyrrr"/>
  </tlLogic>
  <tlLogic id="cluster_29276745_6171369114_6171369115_6171369116_6171369117_6171369118_6171369119_6171369120_6171369121" type="static" programID="rl_program" offset="0">
    <phase duration="10" state="rrrGGGrrrrrr"/>
    <phase duration="3" state="rrryyyrrrrrr"/>
    <phase duration="10" state="GGGrrrrrrrrr"/>
    <phase duration="3" state="yyyrrrrrrrrr"/>
    <phase duration="10" state="rrrrrrrrrGGG"/>
    <phase duration="3" state="rrrrrrrrryyy"/>
    <phase duration="10" state="rrrrrrGGGrrr"/>
    <phase duration="3" state="rrrrrryyyrrr"/>
  </tlLogic>
  <tlLogic id="cluster_29789680_29789682_5202761531_5202761850_5724549577_5724549578_5724549580_5724549582_5724549583" type="static" programID="fixed_60" offset="0">
    <phase duration="60" state="GGGGrrrrrrr"/>
    <phase duration="3" state="yyyyrrrrrrr"/>
    <phase duration="60" state="rrrrrrrrGGG"/>
    <phase duration="3" state="rrrrrrrryyy"/>
    <phase duration="60" state="rrrrGGGGrrr"/>
    <phase duration="3" state="rrrryyyyrrr"/>
  </tlLogic>
  <tlLogic id="cluster_29789680_29789682_5202761531_5202761850_5724549577_5724549578_5724549580_5724549582_5724549583" type="static" programID="rl_program" offset="0">
    <phase duration="10" state="GGGGrrrrrrr"/>
    <phase duration="3" state="yyyyrrrrrrr"/>
    <phase duration="10" state="rrrrrrrrGGG"/>
    <phase duration="3" state="rrrrrrrryyy"/>
    <phase duration="10" state="rrrrGGGGrrr"/>
    <phase duration="3" state="rrrryyyyrrr"/>
  </tlLogic>
  <tlLogic id="cluster_29789683_29789685_3368174813_3368174814_3368174815_3368174816_3368174817_5724562685_5724562686_5724562687" type="static" programID="fixed_60" offset="0">
    <phase duration="60" state="GGrrrrrr"/>
    <phase duration="3" state="yyrrrrrr"/>
    <phase duration="60" state="rrrrrGGG"/>
    <phase duration="3" state="rrrrryyy"/>
    <phase duration="60" state="rrGGGrrr"/>
    <phase duration="3" state="rryyyrrr"/>
  </tlLogic>
  <tlLogic id="cluster_29789683_29789685_3368174813_3368174814_3368174815_3368174816_3368174817_5724562685_5724562686_5724562687" type="static" programID="rl_program" offset="0">
    <phase duration="10" state="GGrrrrrr"/>
    <phase duration="3" state="yyrrrrrr"/>
    <phase duration="10" state="rrrrrGGG"/>
    <phase duration="3" state="rrrrryyy"/>
    <phase duration="10" state="rrGGGrrr"/>
    <phase duration="3" state="rryyyrrr"/>
  </tlLogic>
  <tlLogic id="cluster_3243910627_3255591861_3255591862_3255591864_5727178258_5727178261_5727178262" type="static" programID="fixed_60" offset="0">
    <phase duration="60" state="GGrrrrr"/>
    <phase duration="3" state="yyrrrrr"/>
    <phase duration="60" state="rrGGGrr"/>
    <phase duration="3" state="rryyyrr"/>
    <phase duration="60" state="rrrrrGG"/>
    <phase duration="3" state="rrrrryy"/>
  </tlLogic>
  <tlLogic id="cluster_3243910627_3255591861_3255591862_3255591864_5727178258_5727178261_5727178262" type="static" programID="rl_program" offset="0">
    <phase duration="10" state="GGrrrrr"/>
    <phase duration="3" state="yyrrrrr"/>
    <phase duration="10" state="rrGGGrr"/>
    <phase duration="3" state="rryyyrr"/>
    <phase duration="10" state="rrrrrGG"/>
    <phase duration="3" state="rrrrryy"/>
  </tlLogic>
  <tlLogic id="cluster_6078551443_6078551444_6078551445_6078551446_6171392268_6171392270_6171392271_6171392272_6171392273" type="static" programID="fixed_60" offset="0">
    <phase duration="60" state="rrGr"/>
    <phase duration="3" state="rryr"/>
    <phase duration="60" state="rrrG"/>
    <phase duration="3" state="rrry"/>
  </tlLogic>
  <tlLogic id="cluster_6078551443_6078551444_6078551445_6078551446_6171392268_6171392270_6171392271_6171392272_6171392273" type="static" programID="rl_program" offset="0">
    <phase duration="10" state="rrGr"/>
    <phase duration="3" state="rryr"/>
    <phase duration="10" state="rrrG"/>
    <phase duration="3" state="rrry"/>
  </tlLogic>
  <tlLogic id="gneJ10" type="static" programID="fixed_60" offset="0">
    <phase duration="60" state="GGGGGrrrrrrrrrrrrrrrrrrrrrrrrrrr"/>
    <phase duration="3" state="yyyyyrrrrrrrrrrrrrrrrrrrrrrrrrrr"/>
    <phase duration="60" state="rrrrrrrrrrrrrrrrrrrrrGGGGGGrrrrr"/>
    <phase duration="3" state="rrrrrrrrrrrrrrrrrrrrryyyyyyrrrrr"/>
    <phase duration="60" state="rrrrrrrrrrrGGGGGrrrrrrrrrrrrrrrr"/>
    <phase duration="3" state="rrrrrrrrrrryyyyyrrrrrrrrrrrrrrrr"/>
    <phase duration="60" state="rrrrrGGGGGGrrrrrrrrrrrrrrrrrrrrr"/>
    <phase duration="3" state="rrrrryyyyyyrrrrrrrrrrrrrrrrrrrrr"/>
    <phase duration="60" state="rrrrrrrrrrrrrrrrrrrrrrrrrrrGGGGG"/>
    <phase duration="3" state="rrrrrrrrrrrrrrrrrrrrrrrrrrryyyyy"/>
    <phase duration="60" state="rrrrrrrrrrrrrrrrGGGGGrrrrrrrrrrr"/>
    <phase duration="3" state="rrrrrrrrrrrrrrrryyyyyrrrrrrrrrrr"/>
  </tlLogic>
  <tlLogic id="joinedS_129" type="static" programID="fixed_60" offset="0">
    <phase duration="60" state="rrrGGrr"/>
    <phase duration="3" state="rrryyrr"/>
    <phase duration="60" state="rrrrrGG"/>
    <phase duration="3" state="rrrrryy"/>
    <phase duration="60" state="Grrrrrr"/>
    <phase duration="3" state="yrrrrrr"/>
    <phase duration="60" state="rGGrrrr"/>
    <phase duration="3" state="ryyrrrr"/>
  </tlLogic>
  <tlLogic id="joinedS_129" type="static" programID="rl_program" offset="0">
    <phase duration="10" state="rrrGGrr"/>
    <phase duration="3" state="rrryyrr"/>
    <phase duration="10" state="rrrrrGG"/>
    <phase duration="3" state="rrrrryy"/>
    <phase duration="10" state="Grrrrrr"/>
    <phase duration="3" state="yrrrrrr"/>
    <phase duration="10" state="rGGrrrr"/>
    <phase duration="3" state="ryyrrrr"/>
  </tlLogic>
  <tlLogic id="joinedS_205" type="static" programID="fixed_60" offset="0">
    <phase duration="60" state="rrrrG"/>
    <phase duration="3" state="rrrry"/>
    <phase duration="60" state="rrrGr"/>
    <phase duration="3" state="rrryr"/>
  </tlLogic>
  <tlLogic id="joinedS_205" type="static" programID="rl_program" offset="0">
    <phase duration="10" state="rrrrG"/>
    <phase duration="3" state="rrrry"/>
    <phase duration="10" state="rrrGr"/>
    <phase duration="3" state="rrryr"/>
  </tlLogic>
  <tlLogic id="joinedS_3" type="static" programID="fixed_60" offset="0">
    <phase duration="60" state="rrrGGGGrrrrrrr"/>
    <phase duration="3" state="rrryyyyrrrrrrr"/>
    <phase duration="60" state="GGGrrrrrrrrrrr"/>
    <phase duration="3" state="yyyrrrrrrrrrrr"/>
    <phase duration="60" state="rrrrrrrrrrGGGG"/>
    <phase duration="3" state="rrrrrrrrrryyyy"/>
    <phase duration="60" state="rrrrrrrGGGrrrr"/>
    <phase duration="3" state="rrrrrrryyyrrrr"/>
  </tlLogic>
  <tlLogic id="joinedS_3" type="static" programID="rl_program" offset="0">
    <phase duration="10" state="rrrGGGGrrrrrrr"/>
    <phase duration="3" state="rrryyyyrrrrrrr"/>
    <phase duration="10" state="GGGrrrrrrrrrrr"/>
    <phase duration="3" state="yyyrrrrrrrrrrr"/>
    <phase duration="10" state="rrrrrrrrrrGGGG"/>
    <phase duration="3" state="rrrrrrrrrryyyy"/>
    <phase duration="10" state="rrrrrrrGGGrrrr"/>
    <phase duration="3" state="rrrrrrryyyrrrr"/>
  </tlLogic>
  <tlLogic id="joined_kottbusser" type="static" programID="fixed_60" offset="0">
    <phase duration="60" state="rrrrrrrrrrrrrrrGGrrr"/>
    <phase duration="3" state="rrrrrrrrrrrrrrryyrrr"/>
    <phase duration="60" state="rrrrrrGGGrrrrrrrrrrr"/>
    <phase duration="3" state="rrrrrryyyrrrrrrrrrrr"/>
    <phase duration="60" state="rrrrrrrrrrrrrGGrrrrr"/>
    <phase duration="3" state="rrrrrrrrrrrrryyrrrrr"/>
    <phase duration="60" state="GGrrrrrrrrrrrrrrrrrr"/>
    <phase duration="3" state="yyrrrrrrrrrrrrrrrrrr"/>
    <phase duration="60" state="rrrrGGrrrrrrrrrrrrrr"/>
    <phase duration="3" state="rrrryyrrrrrrrrrrrrrr"/>
    <phase duration="60" state="rrGGrrrrrrrrrrrrrrrr"/>
    <phase duration="3" state="rryyrrrrrrrrrrrrrrrr"/>
    <phase duration="60" state="rrrrrrrrrGGrrrrrrrrr"/>
    <phase duration="3" state="rrrrrrrrryyrrrrrrrrr"/>
    <phase duration="60" state="rrrrrrrrrrrGGrrrrrrr"/>
    <phase duration="3" state="rrrrrrrrrrryyrrrrrrr"/>
    <phase duration="60" state="rrrrrrrrrrrrrrrrrGGG"/>
    <phase duration="3" state="rrrrrrrrrrrrrrrrryyy"/>
  </tlLogic>
</additional>