<additional>

  <vType id="passenger"
         vClass="passenger"
         length="5.0"
         accel="2.6"
         decel="4.5"
         maxSpeed="13.9"
         sigma="0.5"/>

  <vType id="truck"
         vClass="truck"
         length="12.0"
         accel="1.2"
         decel="4.0"
         maxSpeed="11.1"
         sigma="0.3"/>

  <vType id="bus"
         vClass="passenger"
         length="12.0"
         accel="1.2"
         decel="4.0"
         maxSpeed="11.1"/>

  <vType id="motorcycle"
         vClass="motorcycle"
         length="2.2"
         accel="3.5"
         decel="5.0"
         maxSpeed="15.0"/>

  <vType id="ambulance"
         vClass="passenger"
         length="5.0"
         accel="3.2"
         decel="5.5"
         maxSpeed="16.7"
         priority="10"/>

</additional>
