<?xml version="1.0" encoding="UTF-8"?>

<!-- generated on 2025-12-28 05:49:16.871178 by Eclipse SUMO randomTrips.py UNKNOWN
<configuration>
    <net-file value="training_net.net.xml"/>
    <additional-files value="vtypes.add.xml"/>
    <output-trip-file value="trips.motorcycle.xml"/>
    <prefix value="motorcycle"/>
    <trip-attributes value="type=&quot;motorcycle_type&quot;"/>
    <edge-permission value="motorcycle"/>
</configuration>
-->

<!-- generated on 2025-12-28T05:49:16.637716+00:00 by Eclipse SUMO duarouter 1.25.0
<duarouterConfiguration xmlns:xsi="http://www.w3.org/2001/XMLSchema-instance" xsi:noNamespaceSchemaLocation="http://sumo.dlr.de/xsd/duarouterConfiguration.xsd">

    <input>
        <net-file value="training_net.net.xml"/>
        <additional-files value="vtypes.add.xml"/>
        <route-files value="trips.motorcycle.xml"/>
    </input>

    <output>
        <output-file value="routes.rou.xml"/>
        <alternatives-output value="NUL"/>
    </output>

    <time>
        <begin value="0"/>
        <end value="3600.0"/>
    </time>

    <report>
        <no-warnings value="true"/>
        <ignore-errors value="true"/>
        <no-step-log value="true"/>
    </report>

</duarouterConfiguration>
-->

<routes xmlns:xsi="http://www.w3.org/2001/XMLSchema-instance" xsi:noNamespaceSchemaLocation="http://sumo.dlr.de/xsd/routes_file.xsd">
    <vType id="motorcycle_type" length="2.50" maxSpeed="30.00" vClass="motorcycle" guiShape="motorcycle" width="1.00"/>
    <vehicle id="motorcycle0" type="motorcycle_type" depart="0.00">
        <route edges="215090022#2 423843627#1 -215090046#5 -215090046#3 -215090046#1 -215090046#0 -596071807#0 -215089911#1 -215089911#0 -569823304 83276653#3 566888447#0 566888447#1 566888447#3 566888447#4 566888447#5 566888447#6 1305503509 1305503503 151770983#0 151770986 415068135 31017880#0 31017880#1 31017880#2 -1192595035"/>
    </vehicle>
    <vehicle id="motorcycle1" type="motorcycle_type" depart="1.00">
        <route edges="-31017880#4 -31017880#3 -31017880#2 -31017880#1 -31017880#0 575018146#0 575018146#1 708292171 151770983#2 31017890#0 31017890#1 31017890#2 31017890#3 31017890#4 1305503501 83276653#2 83276653#3 566888447#0 566888447#1 566888447#3 -31017861#7 -31017861#6 -31017861#5 -31017861#4 -31017861#3"/>
    </vehicle>
    <vehicle id="motorcycle2" type="motorcycle_type" depart="2.00">
        <route edges="31017896#2 151770983#0 151770983#1 151770983#2 31017890#0 31017890#1 31017890#2 31017890#3 31017890#4 1305503501 83276653#2 83276653#3 566888447#0 566888447#1 566888447#3 -31017861#7 -31017861#6 -31017861#5 -31017861#4 -31017861#3 -31017861#2 -31017861#1 -31017861#0 31017861#0 31017861#1 31017861#2 31017861#3"/>
    </vehicle>
    <vehicle id="motorcycle3" type="motorcycle_type" depart="3.00">
        <route edges="659857898#2 659857898#3 659857902 1305503505 1305503504 31017896#0 31017896#1 31017896#2 151770983#0 151770983#1 151770983#2 31017890#0 31017890#1 31017890#2 -1431978404#3 -1431978404#2 -1431978404#1 -1431978404#0 215089904#0 -215089904#0"/>
    </vehicle>
    <vehicle id="motorcycle4" type="motorcycle_type" depart="4.00">
        <route edges="-787945997 -749128442#4 -749128442#2 -749128442#1 -749128442#0 -235978549 -1431976930#1 -1192595036#1"/>
    </vehicle>
    <vehicle id="motorcycle5" type="motorcycle_type" depart="5.00">
        <route edges="-215090070#1 -215090070#0 -215089976#0 31017880#2 31017880#3 31017880#4 31017880#5 31017880#6 -235978549 -1431976930#1 1431976930#1"/>
    </vehicle>
    <vehicle id="motorcycle6" type="motorcycle_type" depart="6.00">
        <route edges="-1178097064 566962242#9 -825118129#7 -825118129#5 -215225848"/>
    </vehicle>
    <vehicle id="motorcycle7" type="motorcycle_type" depart="7.00">
        <route edges="215090046#3 -215090046#3 -215090046#1 -215090046#0 -596071807#0 -215089911#1 -215089911#0 215089911#0"/>
    </vehicle>
    <vehicle id="motorcycle8" type="motorcycle_type" depart="8.00">
        <route edges="-215090070#2 -215090070#1 -215090070#0 -215089976#0 31017880#2 31017880#3 31017880#4 31017880#5 215089968"/>
    </vehicle>
    <vehicle id="motorcycle9" type="motorcycle_type" depart="9.00">
        <route edges="566962242#8 566962242#9 215089904#0 215089904#1 -1121976098"/>
    </vehicle>
    <vehicle id="motorcycle10" type="motorcycle_type" depart="10.00">
        <route edges="566962242#6 566962242#7 566962242#8 566962242#9 -825118129#7 -825118129#5 -825118129#4 -825118129#3 -825118129#2 -825118129#1 -825118129#0 -749128442#5 -749128442#4 -749128442#2 -749128442#1 -749128442#0 -31017880#6 -31017880#5 31017880#5"/>
    </vehicle>
    <vehicle id="motorcycle11" type="motorcycle_type" depart="11.00">
        <route edges="-588859419#2 -215089945 825118129#1 825118129#2 825118129#3 825118129#4 825118129#5 825118129#7 1431978404#0 1431978404#1 1431978404#2 -215090017#2 -215090017#1"/>
    </vehicle>
    <vehicle id="motorcycle12" type="motorcycle_type" depart="12.00">
        <route edges="787945997 -215090045#0 825118129#2 825118129#3 825118129#4 825118129#5 825118129#7 1431978404#0 1431978404#1 1431978404#2 1431978404#3 566888447#5 566888447#6 1305503509 646210542#0 646210542#1 646210542#2 646210542#4 -646210541#4 703914561#0 -703914562"/>
    </vehicle>
    <vehicle id="motorcycle13" type="motorcycle_type" depart="13.00">
        <route edges="-1431978404#0 -825118129#7 -825118129#5 -825118129#4 -825118129#3 -215089904#6"/>
    </vehicle>
    <vehicle id="motorcycle14" type="motorcycle_type" depart="14.00">
        <route edges="596071807#0 -596071807#0 -215089911#1 -215089911#0 -569823304 83276653#3 566888447#0 566888447#1 566888447#3 566888447#4 -1431978404#3 -215090017#2 215090017#2"/>
    </vehicle>
    <vehicle id="motorcycle15" type="motorcycle_type" depart="15.00">
        <route edges="566962242#7 566962242#8 566962242#9 1431978404#0 1431978404#1 1431978404#2 1431978404#3 31017890#3 31017890#4 1305503501 83276653#2 569823304 376927932#0"/>
    </vehicle>
    <vehicle id="motorcycle16" type="motorcycle_type" depart="16.00">
        <route edges="1431978404#0 -1431978404#0 -825118129#7 -825118129#5 -825118129#4 -825118129#3 -825118129#2 -825118129#1 -825118129#0 825118129#0"/>
    </vehicle>
    <vehicle id="motorcycle17" type="motorcycle_type" depart="17.00">
        <route edges="-703914561#1 -703914561#0 646210541#4 646210542#5 31017896#1 31017896#2 151770983#0 151770983#1 151770983#2 31017890#0 31017890#1 31017890#2 31017890#3 31017890#4 1305503501 83276653#2 569823304 215089911#0 215089911#1 215089911#2 215089911#3"/>
    </vehicle>
    <vehicle id="motorcycle18" type="motorcycle_type" depart="18.00">
        <route edges="575018146#0 575018146#1 708292171 151770983#2 31017890#0 31017890#1 31017890#2 -1431978404#3 -1431978404#2 -1431978404#1 -1431978404#0 -825118129#7 -825118129#5 -825118129#4 -825118129#3 -825118129#2 215090045#0"/>
    </vehicle>
    <vehicle id="motorcycle19" type="motorcycle_type" depart="19.00">
        <route edges="646210541#4 646210542#5 31017896#1 31017896#2 151770983#0 151770983#1 151770983#2 31017890#0 31017890#1 31017890#2 -1431978404#3 -1431978404#2 -1431978404#1 -1431978404#0 -825118129#7 -825118129#5 -825118129#4 -215089941 215089941"/>
    </vehicle>
    <vehicle id="motorcycle20" type="motorcycle_type" depart="20.00">
        <route edges="31017861#7 566888447#4 31017890#3 31017890#4 1305503501 83276653#2 569823304 -1195576992#11 -1195576992#10 -1195576992#9 -1195576992#7 -1195576992#6"/>
    </vehicle>
    <vehicle id="motorcycle21" type="motorcycle_type" depart="21.00">
        <route edges="-215090078#0 749128442#1 749128442#2 749128442#4 749128442#5 825118129#0 825118129#1 825118129#2 825118129#3 825118129#4 825118129#5 825118129#7 -566962242#9 -566962242#8"/>
    </vehicle>
    <vehicle id="motorcycle22" type="motorcycle_type" depart="22.00">
        <route edges="-1431976928#0 -215089917#2 215090078#1 -749128442#2 -749128442#1 -749128442#0 -31017880#6 -31017880#5 -31017880#4 -31017880#3 -31017880#2 -31017880#1 -31017880#0"/>
    </vehicle>
    <vehicle id="motorcycle23" type="motorcycle_type" depart="23.00">
        <route edges="-1431978404#3 -1431978404#2 -1431978404#1 -1431978404#0 -566962242#9 -566962242#8 -566962242#7 -566962242#6 -566962242#5 -566962242#4 -566962242#2"/>
    </vehicle>
    <vehicle id="motorcycle24" type="motorcycle_type" depart="24.00">
        <route edges="215090022#1 215090022#2 423843627#1 -215090046#5 -215090046#3 -215090046#1 -215090046#0 -596071807#0 -215089911#1 -215089911#0 -1195576992#11 -1195576992#10 -1195576992#9 -1195576992#7 -1195576992#6 -1195576992#5 -1195576992#2 -1195576992#1 361760636 820174850#1 -749128442#8"/>
    </vehicle>
    <vehicle id="motorcycle25" type="motorcycle_type" depart="25.00">
        <route edges="-659857898#3 659857898#3 659857902 1305503505 1305503504 31017896#0 31017896#1 31017896#2 151770983#0 151770983#1 151770983#2 31017890#0 31017890#1 31017890#2 31017890#3 31017890#4 1305503501 83276653#2 569823304 376927932#0 376927932#1 376927932#2 -235980021#3 -235980021#2 -235980021#0"/>
    </vehicle>
    <vehicle id="motorcycle26" type="motorcycle_type" depart="26.00">
        <route edges="-31017880#0 31017880#0 31017880#1 31017880#2 31017880#3 31017880#4 31017880#5 31017880#6 749128442#0 749128442#1 749128442#2 749128442#4 749128442#5 749128442#6 749128442#7 749128442#8"/>
    </vehicle>
    <vehicle id="motorcycle27" type="motorcycle_type" depart="27.00">
        <route edges="215090046#1 -215090046#1 -215090046#0 -596071807#0 -215089911#1 -215089911#0 -569823304 83276653#3 566888447#0 566888447#1 566888447#3 566888447#4 -1431978404#3 -1431978404#2 -1431978404#1 -1431978404#0 215089916#1 215089916#2 215089916#3 -992634229#1 -215090070#3 -215090070#2 -215090070#1 -215090070#0 215090019"/>
    </vehicle>
    <vehicle id="motorcycle28" type="motorcycle_type" depart="28.00">
        <route edges="-215089968 31017880#6 749128442#0 749128442#1 749128442#2 749128442#4 749128442#5 825118129#0 825118129#1 825118129#2 825118129#3 825118129#4 825118129#5 825118129#7 1431978404#0 1431978404#1 1431978404#2 1431978404#3 31017890#3 31017890#4 1305503501 83276653#2 569823304 376927932#0"/>
    </vehicle>
    <vehicle id="motorcycle29" type="motorcycle_type" depart="29.00">
        <route edges="-215089945 -825118129#0"/>
    </vehicle>
    <vehicle id="motorcycle30" type="motorcycle_type" depart="30.00">
        <route edges="83276632#0 566888447#3 566888447#4 -1431978404#3 -1431978404#2 -1431978404#1 -1431978404#0 215089916#1 215089916#2 215089916#3 -992634229#1 -215090070#3 -215090070#2 -215090070#1 -215090070#0 215090070#0 215090070#1"/>
    </vehicle>
    <vehicle id="motorcycle31" type="motorcycle_type" depart="31.00">
        <route edges="215089904#1 -1121976098 -215089916#2 -215089916#1 1431978404#0 1431978404#1 1431978404#2 1431978404#3 31017890#3 31017890#4 1305503501 83276653#2 83276653#3 566888447#0 566888447#1 566888447#3 -31017861#7 -31017861#6 -31017861#5 -31017861#4 -31017861#3 -31017861#2 -31017861#1 -31017861#0 31017861#0 31017861#1 31017861#2 31017861#3 31017861#4 31017861#5 31017861#6 31017861#7"/>
    </vehicle>
    <vehicle id="motorcycle32" type="motorcycle_type" depart="32.00">
        <route edges="588859419#4 1431978404#1 1431978404#2 1431978404#3 566888447#5"/>
    </vehicle>
    <vehicle id="motorcycle33" type="motorcycle_type" depart="33.00">
        <route edges="-215090078#1 -215089917#1 235957078#1 235957078#2 749128442#6 749128442#7 749128442#8 820174849#0 820174849#1 -1195576992#0"/>
    </vehicle>
    <vehicle id="motorcycle34" type="motorcycle_type" depart="34.00">
        <route edges="-566962242#1 -566962242#0 575018146#1 708292171 151770983#2 31017890#0 31017890#1 31017890#2 31017890#3 31017890#4 1305503501 83276653#2 569823304 215089911#0 215089911#1 596071807#0 215090046#0 215090046#1 215090046#3 215090046#5 -423843627#1 -423843627#0"/>
    </vehicle>
    <vehicle id="motorcycle35" type="motorcycle_type" depart="35.00">
        <route edges="-215090046#5 -215090046#3 -215090046#1 -215090046#0 -596071807#0 -215089911#1 -215089911#0 -569823304 83276653#3 566888447#0 566888447#1 566888447#3 566888447#4 -1431978404#3 -1431978404#2 -787858368#1 787858368#1"/>
    </vehicle>
    <vehicle id="motorcycle36" type="motorcycle_type" depart="36.00">
        <route edges="646210542#6 566888442#0 566888442#1 566888442#2 566888442#3 1305503505 1305503504 31017896#0 31017896#1 31017896#2 151770983#0 151770983#1 151770983#2 31017890#0 31017890#1 31017890#2 31017890#3 31017890#4 1305503501 83276653#2 569823304 376927932#0 376927932#1 -596071807#3"/>
    </vehicle>
    <vehicle id="motorcycle37" type="motorcycle_type" depart="37.00">
        <route edges="215090070#0 215090070#1 215090070#2 215090070#3 -992634229#0"/>
    </vehicle>
    <vehicle id="motorcycle38" type="motorcycle_type" depart="38.00">
        <route edges="-31017861#7 -31017861#6 -31017861#5 -31017861#4 -31017861#3 -31017861#2 -31017861#1 -31017861#0 31017861#0 31017861#1 31017861#2 31017861#3 31017861#4 31017861#5 31017861#6 31017861#7 566888447#4 -1431978404#3 -1431978404#2 -1431978404#1 -1431978404#0 -825118129#7 -825118129#5 -825118129#4 -825118129#3 -825118129#2 -825118129#1 -825118129#0 -749128442#5 -749128442#4 -749128442#2 -749128442#1 -749128442#0 -31017880#6"/>
    </vehicle>
    <vehicle id="motorcycle39" type="motorcycle_type" depart="39.00">
        <route edges="215089904#3 215225848 825118129#5 825118129#7 1431978404#0 1431978404#1 1431978404#2 1431978404#3 566888447#5 566888447#6 1305503509 646210542#0 646210542#1 646210542#2 646210542#4 646210542#5 31017896#1 -415068142"/>
    </vehicle>
    <vehicle id="motorcycle40" type="motorcycle_type" depart="40.00">
        <route edges="215089911#6 -215089911#0 -569823304 83276653#3 566888447#0 566888447#1 566888447#3 566888447#4 566888447#5 566888447#6 1305503509 646210542#0 646210542#1 646210542#2 1217688135#2 707832926#0 707832926#1 707832926#2 707832926#5"/>
    </vehicle>
    <vehicle id="motorcycle41" type="motorcycle_type" depart="41.00">
        <route edges="-749128442#2 749128442#2 749128442#4 749128442#5 825118129#0 825118129#1 825118129#2 825118129#3 825118129#4 825118129#5 825118129#7 1431978404#0 1431978404#1 1431978404#2 1431978404#3 31017890#3 31017890#4 1305503501 83276653#2 83276653#3 566888447#0 566888447#1 566888447#3 -31017861#7 -31017861#6 -31017861#5 -31017861#4 -31017861#3 -31017861#2"/>
    </vehicle>
    <vehicle id="motorcycle42" type="motorcycle_type" depart="42.00">
        <route edges="992634229#0 992634229#1 -215089916#3 -215089916#2 -215089916#1 1431978404#0"/>
    </vehicle>
    <vehicle id="motorcycle43" type="motorcycle_type" depart="43.00">
        <route edges="-1431976931 588859419#0 820174849#0 820174849#1 1195576992#1 1195576992#2 1195576992#5 1195576992#6 1195576992#7 1195576992#9 1195576992#10 1195576992#11 -1195576992#11 -1195576992#10 -1195576992#9 -1195576992#7"/>
    </vehicle>
    <vehicle id="motorcycle44" type="motorcycle_type" depart="44.00">
        <route edges="-151770988#6 -151770988#3 -151770988#2 566888433#0 566888433#1 566888442#2 566888442#3 1305503505 1305503504 31017896#0 31017896#1 31017896#2 151770983#0 151770983#1 151770983#2 31017890#0 31017890#1 31017890#2 31017890#3 31017890#4 1305503501 83276653#2 569823304 215089911#0 215089911#1 596071807#0 215090046#0 215090046#1 215090046#3"/>
    </vehicle>
    <vehicle id="motorcycle45" type="motorcycle_type" depart="45.00">
        <route edges="566962241 708292171 151770983#2 1305503502 1305503509 646210542#0 646210542#1 646210542#2 646210542#4 646210542#5 646210542#6 566888442#0 566888436#0 566888436#1 151770988#2 151770988#3 151770988#6 1175896817"/>
    </vehicle>
    <vehicle id="motorcycle46" type="motorcycle_type" depart="46.00">
        <route edges="-1195576992#2 -1195576992#1 361760636 820174850#1 -749128442#8 -749128442#7 -749128442#6 825118129#0 825118129#1 -825118129#1"/>
    </vehicle>
    <vehicle id="motorcycle47" type="motorcycle_type" depart="47.00">
        <route edges="992634229#0 992634229#1 -215089916#3 -215089916#2 -215089916#1 215089904#0"/>
    </vehicle>
    <vehicle id="motorcycle48" type="motorcycle_type" depart="48.00">
        <route edges="820174850#1 820174849#0 820174849#1 1195576992#1 1195576992#2 1195576992#5 -1314561460 1164686618#1 656417178"/>
    </vehicle>
    <vehicle id="motorcycle49" type="motorcycle_type" depart="49.00">
        <route edges="235980021#0 235980021#2 235980021#3 -376927932#2 -376927932#1 -376927932#0 -569823304 83276653#3 566888447#0 566888447#1 566888447#3 566888447#4 -1431978404#3 -1431978404#2 -1431978404#1 -1431978404#0 215089916#1 215089916#2 -1121976097#0 215089904#3"/>
    </vehicle>
    <vehicle id="motorcycle50" type="motorcycle_type" depart="50.00">
        <route edges="-31017880#0 31017880#0 31017880#1 215089976#0 215090070#0 215090070#1 215090070#2"/>
    </vehicle>
    <vehicle id="motorcycle51" type="motorcycle_type" depart="51.00">
        <route edges="-215089904#0 1431978404#0 1431978404#1 1431978404#2 1431978404#3 566888447#5 566888447#6 1305503509 646210542#0 646210542#1 646210542#2 646210542#4 646210542#5 806357169#0 -746615675#1 1187096042#0 1187096042#1"/>
    </vehicle>
    <vehicle id="motorcycle52" type="motorcycle_type" depart="52.00">
        <route edges="1121976097#0 -215089916#2 -215089916#1 1431978404#0 1431978404#1 1431978404#2 1431978404#3 31017890#3 31017890#4 1305503501 83276653#2 569823304 215089911#0 215089911#1 596071807#0 215090046#0 215090046#1 789770471"/>
    </vehicle>
    <vehicle id="motorcycle53" type="motorcycle_type" depart="53.00">
        <route edges="646210542#6 566888442#0 566888442#1 566888442#2 566888442#3 1305503505 1305503504 31017896#0 31017896#1 31017896#2 151770983#0 151770983#1 151770983#2 31017890#0 -215089949#1 215090017#1 423840850#0 -423840850#0"/>
    </vehicle>
    <vehicle id="motorcycle54" type="motorcycle_type" depart="54.00">
        <route edges="1195576992#7 1195576992#9 1195576992#10 1195576992#11 215089911#0 215089911#1 596071807#0 215090046#0 215090046#1 215090046#3 215090046#5 -215090046#5"/>
    </vehicle>
    <vehicle id="motorcycle55" type="motorcycle_type" depart="55.00">
        <route edges="-415062373 215089911#6 -215089911#0 -569823304 83276653#3 566888447#0 566888447#1 566888447#3 566888447#4 -1431978404#3 -1431978404#2 -1431978404#1 -1431978404#0 215089916#1 215089916#2 215089916#3 -992634229#1 -215090070#3 -215090070#2 -215090070#1 -215090070#0 215090070#0 215090070#1"/>
    </vehicle>
    <vehicle id="motorcycle56" type="motorcycle_type" depart="56.00">
        <route edges="215089949#1 -215089949#1 -215090017#0"/>
    </vehicle>
    <vehicle id="motorcycle57" type="motorcycle_type" depart="57.00">
        <route edges="415068135 575018146#0 575018146#1 708292171 151770983#2 31017890#0 31017890#1 31017890#2 -1431978404#3 -1431978404#2 -1431978404#1 -1431978404#0 -825118129#7 -825118129#5 -215225848 215089904#4"/>
    </vehicle>
    <vehicle id="motorcycle58" type="motorcycle_type" depart="58.00">
        <route edges="566888436#1 566888433#0 566888433#1 566888442#2 566888442#3 1305503505 1305503504 31017896#0 31017896#1 31017896#2 151770983#0 151770983#1 151770983#2 31017890#0 31017890#1 31017890#2 -1431978404#3 -1431978404#2 -1431978404#1 -1431978404#0 215089904#0"/>
    </vehicle>
    <vehicle id="motorcycle59" type="motorcycle_type" depart="59.00">
        <route edges="-1105791652 -215090077 -749128442#1 -749128442#0 -31017880#6 -31017880#5 -31017880#4 -31017880#3 -31017880#2 -31017880#1 -31017880#0 575018146#0 575018146#1 708292171 151770983#2 1305503502 1305503509 646210542#0 646210542#1 646210542#2 646210542#4 -646210541#4"/>
    </vehicle>
    <vehicle id="motorcycle60" type="motorcycle_type" depart="60.00">
        <route edges="-1175896817 -151770988#6 -151770988#3 -151770988#2 566888433#0 566888433#1 566888442#2 659857901 1160006921#0 1160006921#1 1160006921#2 31017880#0 31017880#1 31017880#2 31017880#3 31017880#4 31017880#5 31017880#6 749128442#0 749128442#1 749128442#2 749128442#4"/>
    </vehicle>
    <vehicle id="motorcycle61" type="motorcycle_type" depart="61.00">
        <route edges="-423840850#1 787858368#0 787858368#1 -1431978404#1 -588859419#4 -588859419#3 -588859419#2 -588859419#1 -588859419#0 1431976931 -1431976928#1"/>
    </vehicle>
    <vehicle id="motorcycle62" type="motorcycle_type" depart="62.00">
        <route edges="-1431976929#0 235978549 749128442#0 749128442#1 749128442#2 749128442#4 749128442#5 825118129#0 825118129#1 825118129#2 825118129#3 825118129#4 825118129#5 825118129#7 1431978404#0 1431978404#1 1431978404#2 1431978404#3 31017890#3 31017890#4 1305503500#0 1305503500#1"/>
    </vehicle>
    <vehicle id="motorcycle63" type="motorcycle_type" depart="63.00">
        <route edges="-1195576992#7 -1195576992#6 -1314561460 1164686618#1 83276653#0 83276653#2 83276653#3 566888447#0 566888447#1 566888447#3 566888447#4 566888447#5 566888447#6 1305503509 646210542#0 646210542#1 646210542#2 646210542#4 646210542#5 646210542#6 566888442#0 566888436#0 566888436#1 566888433#0"/>
    </vehicle>
    <vehicle id="motorcycle64" type="motorcycle_type" depart="64.00">
        <route edges="423840850#0 423840850#1 566962242#7 566962242#8 566962242#9 -825118129#7 -825118129#5 -825118129#4 -825118129#3 -825118129#2 -825118129#1 -825118129#0 -235957078#2 -235957078#1 -235957078#0 -1431976928#0 -215089917#2"/>
    </vehicle>
    <vehicle id="motorcycle65" type="motorcycle_type" depart="65.00">
        <route edges="1190740105 -215090077 749128442#2 749128442#4 749128442#5 825118129#0 825118129#1 825118129#2 825118129#3 825118129#4 825118129#5 825118129#7 1431978404#0 1431978404#1 1431978404#2 1431978404#3 31017890#3 31017890#4 1305503501 83276653#2 569823304 215089911#0 215089911#1 215089911#2"/>
    </vehicle>
    <vehicle id="motorcycle66" type="motorcycle_type" depart="66.00">
        <route edges="-31017861#7 -31017861#6 -31017861#5 -31017861#4 -31017861#3 -31017861#2 -31017861#1 -31017861#0 31017861#0 31017861#1 31017861#2 31017861#3 31017861#4 31017861#5 31017861#6 31017861#7 566888447#4 566888447#5 566888447#6 1305503509 646210542#0 646210542#1 646210542#2 646210542#4 646210542#5 646210542#6 566888442#0 566888436#0 566888436#1 -151770988#0 -659857898#0 659857898#0"/>
    </vehicle>
    <vehicle id="motorcycle67" type="motorcycle_type" depart="67.00">
        <route edges="-789770470 215090070#2 215090070#3 992634229#1 -215089916#3 -215089916#2 -215089916#1 1431978404#0 1431978404#1 1431978404#2 1431978404#3 31017890#3 31017890#4 1305503501 83276653#2 569823304 376927932#0 376927932#1 376927932#2 -235980021#3 -235980021#2"/>
    </vehicle>
    <vehicle id="motorcycle68" type="motorcycle_type" depart="68.00">
        <route edges="1431978404#2 1431978404#3 31017890#3 31017890#4 1305503501 83276653#2 569823304 376927932#0"/>
    </vehicle>
    <vehicle id="motorcycle69" type="motorcycle_type" depart="69.00">
        <route edges="-215090045#2 -215090045#0 825118129#2 825118129#3 825118129#4 825118129#5 825118129#7 1431978404#0 1431978404#1 1431978404#2 1431978404#3 31017890#3 31017890#4 1305503501 83276653#2 569823304 376927932#0 376927932#1 -596071807#3 -596071807#2"/>
    </vehicle>
    <vehicle id="motorcycle70" type="motorcycle_type" depart="70.00">
        <route edges="83276653#0 83276653#2 83276653#3 566888447#0 566888447#1 566888447#3 566888447#4 -1431978404#3 -1431978404#2 -1431978404#1 -1431978404#0 -825118129#7 -825118129#5 -825118129#4 -825118129#3 -825118129#2 -825118129#1 -825118129#0 -235957078#2 -235957078#1 215089917#1 215090078#1"/>
    </vehicle>
    <vehicle id="motorcycle71" type="motorcycle_type" depart="71.00">
        <route edges="-825118129#3 825118129#3 825118129#4 825118129#5 825118129#7 1431978404#0 1431978404#1 1431978404#2 1431978404#3 566888447#5 566888447#6 1305503509 1305503503 151770983#0 151770986"/>
    </vehicle>
    <vehicle id="motorcycle72" type="motorcycle_type" depart="72.00">
        <route edges="-215089904#6 215089941 825118129#4 825118129#5 825118129#7 1431978404#0 1431978404#1 1431978404#2 1431978404#3 31017890#3 31017890#4 1305503501 83276653#2 83276653#3 566888447#0 566888447#1 566888447#3 -31017861#7 -31017861#6 -31017861#5 -31017861#4"/>
    </vehicle>
    <vehicle id="motorcycle73" type="motorcycle_type" depart="73.00">
        <route edges="-588859419#1 -749128442#8 -749128442#7 -749128442#6 -749128442#5 -749128442#4 -749128442#2 -749128442#1 -749128442#0 -31017880#6 215089968"/>
    </vehicle>
    <vehicle id="motorcycle74" type="motorcycle_type" depart="74.00">
        <route edges="-215090078#1 -215089917#1 235957078#1 235957078#2 825118129#0 825118129#1 825118129#2 825118129#3 825118129#4 825118129#5 825118129#7 1431978404#0 1431978404#1 1431978404#2 1431978404#3 31017890#3 31017890#4 1305503501 83276653#2 83276653#3 566888447#0 566888447#1 566888447#3 -31017861#7 -31017861#6 -31017861#5 -31017861#4 -31017861#3 -31017861#2"/>
    </vehicle>
    <vehicle id="motorcycle75" type="motorcycle_type" depart="75.00">
        <route edges="-1195576992#9 -1195576992#7 -1195576992#6 1195576992#6 1195576992#7 1195576992#9 1195576992#10 1195576992#11 215089911#0 215089911#1 596071807#0 215090046#0 215090046#1 215090046#3 215090046#5"/>
    </vehicle>
    <vehicle id="motorcycle76" type="motorcycle_type" depart="76.00">
        <route edges="-215090078#1 -215090078#0 -749128442#0 -31017880#6 -31017880#5 -31017880#4 -31017880#3 -31017880#2 -31017880#1 -31017880#0 575018146#0 575018146#1 708292171 151770983#2 1305503502 1305503509 646210542#0 646210542#1 646210542#2 1217688135#2 707832926#0 707832926#1 707832926#2 707832926#5 707832926#6 707832926#8 707832926#9"/>
    </vehicle>
    <vehicle id="motorcycle77" type="motorcycle_type" depart="77.00">
        <route edges="646210541#3 646210541#4 646210542#5 31017896#1 31017896#2 151770983#0 151770983#1 151770983#2 31017890#0 31017890#1 31017890#2 -1431978404#3 -1431978404#2 -1431978404#1"/>
    </vehicle>
    <vehicle id="motorcycle78" type="motorcycle_type" depart="78.00">
        <route edges="-235957078#2 235957078#2 825118129#0 825118129#1 825118129#2 825118129#3 825118129#4 825118129#5 825118129#7 1431978404#0 1431978404#1 1431978404#2 1431978404#3 31017890#3 31017890#4 1305503501 83276653#2 83276653#3 566888447#0 566888447#1 566888447#3 -31017861#7 -31017861#6 -31017861#5 -31017861#4 -31017861#3 -31017861#2 -31017861#1 -31017861#0 31017861#0"/>
    </vehicle>
    <vehicle id="motorcycle79" type="motorcycle_type" depart="79.00">
        <route edges="-215090064 -215090046#3 -215090046#1 -215090046#0 -596071807#0 -215089911#1 -215089911#0 -569823304 83276653#3 566888447#0 566888447#1 566888447#3 566888447#4 -1431978404#3 -1431978404#2 -1431978404#1 -1431978404#0 -825118129#7 -825118129#5 -825118129#4 -215089941"/>
    </vehicle>
    <vehicle id="motorcycle80" type="motorcycle_type" depart="80.00">
        <route edges="749128442#2 749128442#4 749128442#5 -235957078#2 -235957078#1 215089917#1"/>
    </vehicle>
    <vehicle id="motorcycle81" type="motorcycle_type" depart="81.00">
        <route edges="1190739880#1 -31017880#3 -31017880#2 -31017880#1 -31017880#0 575018146#0 566962242#0 566962242#1 566962242#2"/>
    </vehicle>
    <vehicle id="motorcycle82" type="motorcycle_type" depart="82.00">
        <route edges="566962242#7 -215089943 215089916#2 215089916#3 -992634229#1 -215090070#3"/>
    </vehicle>
    <vehicle id="motorcycle83" type="motorcycle_type" depart="83.00">
        <route edges="-1431978404#2 -1431978404#1 -1431978404#0 -566962242#9 1178097064"/>
    </vehicle>
    <vehicle id="motorcycle84" type="motorcycle_type" depart="84.00">
        <route edges="-789770470 215090070#2 215090070#3 992634229#1 -215089916#3 1121976098 -215089904#1 415046264 -825118129#5 -825118129#4 -825118129#3 -825118129#2 -825118129#1 -825118129#0 749128442#6 749128442#7 749128442#8 820174849#0 820174849#1 1195576992#1 1195576992#2 1195576992#5"/>
    </vehicle>
    <vehicle id="motorcycle85" type="motorcycle_type" depart="85.00">
        <route edges="31017890#3 31017890#4 1305503501 83276653#2 83276653#3 566888447#0 566888447#1 566888447#3 -31017861#7 -31017861#6 -31017861#5 -31017861#4 -31017861#3 -31017861#2 -31017861#1 -31017861#0 31017861#0 31017861#1 31017861#2"/>
    </vehicle>
    <vehicle id="motorcycle86" type="motorcycle_type" depart="86.00">
        <route edges="825118129#5 -825118129#5 -825118129#4 -825118129#3 -215089904#6"/>
    </vehicle>
    <vehicle id="motorcycle87" type="motorcycle_type" depart="87.00">
        <route edges="-749128442#5 749128442#5 825118129#0 825118129#1 825118129#2 825118129#3 825118129#4 825118129#5 825118129#7 1431978404#0 1431978404#1 1431978404#2 1431978404#3 566888447#5 566888447#6 1305503509 646210542#0 646210542#1 646210542#2 646210542#4 646210542#5 806357169#0 -746615675#1 -746615675#0"/>
    </vehicle>
    <vehicle id="motorcycle88" type="motorcycle_type" depart="88.00">
        <route edges="646210541#4 646210542#5 31017896#1 31017896#2 151770983#0 151770983#1 151770983#2 31017890#0 31017890#1 31017890#2 31017890#3 31017890#4 1305503501 83276653#2 569823304 376927932#0 376927932#1 -376927932#1 -376927932#0"/>
    </vehicle>
    <vehicle id="motorcycle89" type="motorcycle_type" depart="89.00">
        <route edges="-215090019 -215089976#0 31017880#2 31017880#3 31017880#4 31017880#5 31017880#6 749128442#0 749128442#1 749128442#2 749128442#4 749128442#5 749128442#6 749128442#7 1190742076#1"/>
    </vehicle>
    <vehicle id="motorcycle90" type="motorcycle_type" depart="90.00">
        <route edges="-787945997 749128442#5 825118129#0 825118129#1 825118129#2 825118129#3 825118129#4 825118129#5 825118129#7 -566962242#9 -566962242#8 -566962242#7 -566962242#6 -566962242#5 -566962242#4"/>
    </vehicle>
    <vehicle id="motorcycle91" type="motorcycle_type" depart="91.00">