<?xml version="1.0" encoding="UTF-8"?>

<!-- generated on 2025-12-28 05:48:55 by Eclipse SUMO netconvert Version 1.24.0
<netconvertConfiguration xmlns:xsi="http://www.w3.org/2001/XMLSchema-instance" xsi:noNamespaceSchemaLocation="http://sumo.dlr.de/xsd/netconvertConfiguration.xsd">

    <input>
        <sumo-net-file value="osm_tls.net.xml"/>
    </input>

    <output>
        <output-file value="training_net.net.xml"/>
        <output.street-names value="true"/>
    </output>

    <processing>
        <geometry.remove value="true"/>
        <geometry.min-radius.fix.railways value="false"/>
        <geometry.avoid-overlap value="false"/>
        <geometry.max-grade.fix value="false"/>
        <offset.disable-normalization value="true"/>
        <lefthand value="1"/>
    </processing>

    <building_defaults>
        <default.lanewidth value="3.2"/>
    </building_defaults>

    <tls_building>
        <tls.join value="true"/>
        <tls.join-dist value="30"/>
        <tls.default-type value="static"/>
        <tls.layout value="incoming"/>
    </tls_building>

    <edge_removal>
        <keep-edges.by-vclass value="passenger,bus,truck,motorcycle,taxi,delivery"/>
        <remove-edges.by-vclass value="pedestrian,bicycle"/>
        <remove-edges.isolated value="true"/>
    </edge_removal>

    <junctions>
        <no-turnarounds value="true"/>
        <no-turnarounds.tls value="true"/>
        <junctions.join value="true"/>
        <junctions.join-dist value="30"/>
        <junctions.corner-detail value="5"/>
        <junctions.limit-turn-speed value="5.50"/>
        <rectangular-lane-cut value="0"/>
    </junctions>

    <pedestrian>
        <sidewalks.guess value="false"/>
        <crossings.guess value="false"/>
        <walkingareas value="0"/>
    </pedestrian>

</netconvertConfiguration>
-->

<net version="1.20" junctionCornerDetail="5" lefthand="true" limitTurnSpeed="5.50" avoidOverlap="0" xmlns:xsi="http://www.w3.org/2001/XMLSchema-instance" xsi:noNamespaceSchemaLocation="http://sumo.dlr.de/xsd/net_file.xsd">

    <location netOffset="-8128373.21,-2159232.62" convBoundary="2.28,0.00,1406.71,1859.67" origBoundary="73.018419,19.036491,73.031056,19.052282" projParameter="+proj=merc +a=6378137 +b=6378137 +lat_ts=0.0 +lon_0=0.0 +x_0=0.0 +y_0=0 +k=1.0 +units=m +nadgrids=@null +wktext +no_defs"/>

    <type id="highway.living_street" priority="2" numLanes="1" speed="2.78" disallow="tram rail_urban rail rail_electric rail_fast ship container cable_car subway aircraft wheelchair scooter drone" oneway="0"/>
    <type id="highway.motorway" priority="14" numLanes="2" speed="39.44" allow="private emergency authority army vip passenger hov taxi bus coach delivery truck trailer motorcycle evehicle custom1 custom2" oneway="1"/>
    <type id="highway.motorway_link" priority="9" numLanes="1" speed="22.22" allow="private emergency authority army vip passenger hov taxi bus coach delivery truck trailer motorcycle evehicle custom1 custom2" oneway="1"/>
    <type id="highway.residential" priority="3" numLanes="1" speed="13.89" disallow="tram rail_urban rail rail_electric rail_fast ship container cable_car subway aircraft wheelchair scooter drone" oneway="0"/>
    <type id="highway.secondary" priority="11" numLanes="1" speed="27.78" disallow="tram rail_urban rail rail_electric rail_fast ship container cable_car subway aircraft wheelchair scooter drone" oneway="0"/>
    <type id="highway.secondary_link" priority="6" numLanes="1" speed="22.22" disallow="tram rail_urban rail rail_electric rail_fast ship container cable_car subway aircraft wheelchair scooter drone" oneway="0"/>
    <type id="highway.service" priority="1" numLanes="1" speed="5.56" allow="pedestrian delivery bicycle" oneway="0"/>
    <type id="highway.tertiary" priority="10" numLanes="1" speed="22.22" disallow="tram rail_urban rail rail_electric rail_fast ship container cable_car subway aircraft wheelchair scooter drone" oneway="0"/>
    <type id="highway.tertiary_link" priority="5" numLanes="1" speed="22.22" disallow="tram rail_urban rail rail_electric rail_fast ship container cable_car subway aircraft wheelchair scooter drone" oneway="0"/>
    <type id="highway.unclassified" priority="4" numLanes="1" speed="13.89" disallow="tram rail_urban rail rail_electric rail_fast ship container cable_car subway aircraft wheelchair scooter drone" oneway="0"/>

    <edge id=":10006525749_0" function="internal">
        <lane id=":10006525749_0_0" index="0" allow="pedestrian delivery bicycle" speed="3.65" length="4.67" shape="13.07,829.58 11.87,830.37 11.46,831.17 11.85,831.97 13.05,832.78"/>
    </edge>
    <edge id=":10132051268_0" function="internal">
        <lane id=":10132051268_0_0" index="0" allow="pedestrian delivery bicycle" speed="6.08" length="7.79" shape="80.85,32.77 80.42,30.67 79.42,29.22 77.86,28.42 75.73,28.27"/>
    </edge>
    <edge id=":10132051268_1" function="internal">
        <lane id=":10132051268_1_0" index="0" disallow="tram rail_urban rail rail_electric rail_fast ship container cable_car subway aircraft wheelchair scooter drone" speed="3.65" length="4.67" shape="80.85,32.77 79.98,31.62 79.16,31.27 78.38,31.71 77.66,32.96"/>
    </edge>
    <edge id=":10132051268_2" function="internal">
        <lane id=":10132051268_2_0" index="0" allow="pedestrian delivery bicycle" speed="3.90" length="2.60" shape="75.95,31.46 76.66,31.51 77.18,31.78 77.51,32.26 77.66,32.96"/>
    </edge>
    <edge id=":10132051269_0" function="internal">
        <lane id=":10132051269_0_0" index="0" allow="pedestrian delivery bicycle" speed="3.65" length="4.67" shape="33.34,31.23 32.20,32.12 31.85,32.94 32.31,33.71 33.56,34.43"/>
    </edge>
    <edge id=":10172786319_0" function="internal">
        <lane id=":10172786319_0_0" index="0" disallow="tram rail_urban rail rail_electric rail_fast ship container cable_car subway aircraft wheelchair scooter drone" speed="22.22" length="9.41" shape="649.14,1342.41 643.06,1349.58"/>
    </edge>
    <edge id=":10172786319_1" function="internal">
        <lane id=":10172786319_1_0" index="0" allow="pedestrian delivery bicycle" speed="6.99" length="3.17" shape="649.14,1342.41 647.72,1344.71 647.64,1345.17"/>
    </edge>
    <edge id=":10172786319_7" function="internal">
        <lane id=":10172786319_7_0" index="0" allow="pedestrian delivery bicycle" speed="6.99" length="7.01" shape="647.64,1345.17 647.36,1346.97 648.08,1349.20 649.87,1351.40"/>
    </edge>
    <edge id=":10172786319_2" function="internal">
        <lane id=":10172786319_2_0" index="0" allow="pedestrian delivery bicycle" speed="5.20" length="5.20" shape="652.06,1349.06 651.12,1347.92 650.72,1346.78 650.88,1345.63 651.58,1344.48"/>
    </edge>
    <edge id=":10172786319_3" function="internal">
        <lane id=":10172786319_3_0" index="0" allow="pedestrian delivery bicycle" speed="6.82" length="10.40" shape="652.06,1349.06 649.71,1347.42 647.42,1346.96 645.21,1347.68 643.06,1349.58"/>
    </edge>
    <edge id=":10172786319_4" function="internal">
        <lane id=":10172786319_4_0" index="0" allow="pedestrian delivery bicycle" speed="3.65" length="1.44" shape="652.06,1349.06 650.64,1348.83"/>
    </edge>
    <edge id=":10172786319_8" function="internal">
        <lane id=":10172786319_8_0" index="0" allow="pedestrian delivery bicycle" speed="3.65" length="3.23" shape="650.64,1348.83 649.80,1349.14 649.55,1350.00 649.87,1351.40"/>
    </edge>
    <edge id=":10172786319_5" function="internal">
        <lane id=":10172786319_5_0" index="0" allow="pedestrian delivery bicycle" speed="4.99" length="5.06" shape="645.50,1351.65 646.54,1350.73 647.62,1350.38 648.73,1350.60 649.87,1351.40"/>
    </edge>
    <edge id=":10172786319_6" function="internal">
        <lane id=":10172786319_6_0" index="0" disallow="tram rail_urban rail rail_electric rail_fast ship container cable_car subway aircraft wheelchair scooter drone" speed="22.22" length="9.41" shape="645.50,1351.65 651.58,1344.48"/>
    </edge>
    <edge id=":10172786320_0" function="internal">
        <lane id=":10172786320_0_0" index="0" allow="pedestrian delivery bicycle" speed="3.65" length="4.67" shape="709.82,1407.52 711.24,1407.75 712.08,1407.44 712.33,1406.59 712.00,1405.18"/>
    </edge>
    <edge id=":10215107460_0" function="internal">
        <lane id=":10215107460_0_0" index="0" allow="pedestrian delivery bicycle" speed="3.65" length="4.67" shape="318.70,72.21 319.60,73.34 320.43,73.66 321.20,73.19 321.88,71.93"/>
    </edge>
    <edge id=":10261850243_0" function="internal">
        <lane id=":10261850243_0_0" index="0" disallow="tram rail_urban rail rail_electric rail_fast ship container cable_car subway aircraft wheelchair scooter drone" speed="6.44" length="9.03" shape="440.68,1241.73 438.84,1243.41 436.92,1244.07 434.92,1243.72 432.84,1242.36"/>
    </edge>
    <edge id=":10261850243_1" function="internal">
        <lane id=":10261850243_1_0" index="0" disallow="tram rail_urban rail rail_electric rail_fast ship container cable_car subway aircraft wheelchair scooter drone" speed="13.89" length="14.40" shape="440.68,1241.73 431.53,1252.85"/>
    </edge>
    <edge id=":10261850243_2" function="internal">
        <lane id=":10261850243_2_0" index="0" disallow="tram rail_urban rail rail_electric rail_fast ship container cable_car subway aircraft wheelchair scooter drone" speed="3.65" length="4.67" shape="440.68,1241.73 440.53,1243.16 440.90,1243.98 441.77,1244.18 443.15,1243.76"/>
    </edge>
    <edge id=":10261850243_3" function="internal">
        <lane id=":10261850243_3_0" index="0" disallow="tram rail_urban rail rail_electric rail_fast ship container cable_car subway aircraft wheelchair scooter drone" speed="13.89" length="14.40" shape="434.00,1254.89 443.15,1243.76"/>
    </edge>
    <edge id=":10261850243_4" function="internal">
        <lane id=":10261850243_4_0" index="0" disallow="tram rail_urban rail rail_electric rail_fast ship container cable_car subway aircraft wheelchair scooter drone" speed="8.11" length="14.24" shape="434.00,1254.89 435.98,1251.60 436.45,1248.42 435.41,1245.34 432.84,1242.36"/>
    </edge>
    <edge id=":10261850243_5" function="internal">
        <lane id=":10261850243_5_0" index="0" disallow="tram rail_urban rail rail_electric rail_fast ship container cable_car subway aircraft wheelchair scooter drone" speed="3.65" length="4.67" shape="434.00,1254.89 434.14,1253.45 433.78,1252.63 432.91,1252.44 431.53,1252.85"/>
    </edge>
    <edge id=":10261850243_6" function="internal">
        <lane id=":10261850243_6_0" index="0" disallow="tram rail_urban rail rail_electric rail_fast ship container cable_car subway aircraft wheelchair scooter drone" speed="6.64" length="9.20" shape="430.73,1244.77 432.40,1246.70 433.09,1248.69 432.80,1250.74 431.53,1252.85"/>
    </edge>
    <edge id=":10261850243_7" function="internal">
        <lane id=":10261850243_7_0" index="0" disallow="tram rail_urban rail rail_electric rail_fast ship container cable_car subway aircraft wheelchair scooter drone" speed="7.94" length="14.32" shape="430.73,1244.77 434.03,1246.92 437.20,1247.47 440.24,1246.42 443.15,1243.76"/>
    </edge>
    <edge id=":10261850243_8" function="internal">
        <lane id=":10261850243_8_0" index="0" disallow="tram rail_urban rail rail_electric rail_fast ship container cable_car subway aircraft wheelchair scooter drone" speed="3.65" length="4.67" shape="430.73,1244.77 432.16,1244.96 432.98,1244.62 433.21,1243.76 432.84,1242.36"/>
    </edge>
    <edge id=":10580905493_0" function="internal">
        <lane id=":10580905493_0_0" index="0" allow="pedestrian delivery bicycle" speed="5.56" length="6.32" shape="705.11,640.22 703.68,641.68 702.33,642.68 701.06,643.24 699.86,643.34"/>
    </edge>
    <edge id=":10580905493_1" function="internal">
        <lane id=":10580905493_1_0" index="0" allow="pedestrian delivery bicycle" speed="5.56" length="11.05" shape="705.11,640.22 703.43,642.83 703.11,645.23 704.15,647.41 706.55,649.38"/>
    </edge>
    <edge id=":10580905493_2" function="internal">
        <lane id=":10580905493_2_0" index="0" allow="pedestrian delivery bicycle" speed="3.65" length="1.44" shape="705.11,640.22 704.93,641.65"/>
    </edge>
    <edge id=":10580905493_9" function="internal">
        <lane id=":10580905493_9_0" index="0" allow="pedestrian delivery bicycle" speed="3.65" length="3.23" shape="704.93,641.65 705.27,642.47 706.13,642.70 707.52,642.31"/>
    </edge>
    <edge id=":10580905493_3" function="internal">
        <lane id=":10580905493_3_0" index="0" allow="pedestrian delivery bicycle" speed="4.88" length="5.22" shape="708.21,646.64 707.07,645.71 706.58,644.68 706.73,643.55 707.52,642.31"/>
    </edge>
    <edge id=":10580905493_4" function="internal">
        <lane id=":10580905493_4_0" index="0" allow="pedestrian delivery bicycle" speed="5.56" length="9.11" shape="708.21,646.64 705.91,645.21 704.26,644.30 702.50,643.73 699.86,643.34"/>
    </edge>
    <edge id=":10580905493_5" function="internal">
        <lane id=":10580905493_5_0" index="0" allow="pedestrian delivery bicycle" speed="3.65" length="1.44" shape="708.21,646.64 706.77,646.71"/>
    </edge>
    <edge id=":10580905493_10" function="internal">
        <lane id=":10580905493_10_0" index="0" allow="pedestrian delivery bicycle" speed="3.65" length="3.23" shape="706.77,646.71 706.01,647.18 705.94,648.08 706.55,649.38"/>
    </edge>
    <edge id=":10580905493_6" function="internal">
        <lane id=":10580905493_6_0" index="0" allow="pedestrian delivery bicycle" speed="5.56" length="7.71" shape="699.52,646.52 701.75,646.86 703.23,647.37 704.61,648.16 706.55,649.38"/>
    </edge>
    <edge id=":10580905493_7" function="internal">
        <lane id=":10580905493_7_0" index="0" allow="pedestrian delivery bicycle" speed="5.56" length="2.59" shape="699.52,646.52 701.51,646.42 702.07,646.22"/>
    </edge>
    <edge id=":10580905493_8" function="internal">
        <lane id=":10580905493_8_0" index="0" allow="pedestrian delivery bicycle" speed="3.65" length="1.44" shape="699.52,646.52 700.79,645.86"/>
    </edge>
    <edge id=":10580905493_11" function="internal">
        <lane id=":10580905493_11_0" index="0" allow="pedestrian delivery bicycle" speed="5.56" length="6.80" shape="702.07,646.22 703.51,645.68 705.52,644.32 707.52,642.31"/>
    </edge>
    <edge id=":10580905493_12" function="internal">
        <lane id=":10580905493_12_0" index="0" allow="pedestrian delivery bicycle" speed="3.65" length="3.23" shape="700.79,645.86 701.28,645.10 700.97,644.26 699.86,643.34"/>
    </edge>
    <edge id=":10737737615_0" function="internal">
        <lane id=":10737737615_0_0" index="0" disallow="tram rail_urban rail rail_electric rail_fast ship container cable_car subway aircraft wheelchair scooter drone" speed="3.65" length="4.67" shape="282.85,1541.36 284.11,1540.65 284.57,1539.88 284.23,1539.05 283.09,1538.16"/>
    </edge>
    <edge id=":10765731567_0" function="internal">
        <lane id=":10765731567_0_0" index="0" allow="private emergency authority army vip passenger hov taxi bus coach delivery truck trailer motorcycle evehicle custom1 custom2" speed="6.13" length="2.22" shape="681.20,1184.74 681.50,1185.32 681.76,1185.70 682.10,1186.00 682.67,1186.31"/>
    </edge>
    <edge id=":10765731567_1" function="internal">
        <lane id=":10765731567_1_0" index="0" disallow="tram rail_urban rail rail_electric rail_fast ship container cable_car subway aircraft wheelchair scooter drone" speed="27.78" length="2.60" shape="684.03,1183.25 685.02,1185.36"/>
        <lane id=":10765731567_1_1" index="1" disallow="tram rail_urban rail rail_electric rail_fast ship container cable_car subway aircraft wheelchair scooter drone" speed="27.78" length="2.60" shape="686.86,1181.76 687.97,1184.11"/>
        <lane id=":10765731567_1_2" index="2" disallow="tram rail_urban rail rail_electric rail_fast ship container cable_car subway aircraft wheelchair scooter drone" speed="27.78" length="2.60" shape="689.69,1180.27 690.92,1182.86"/>
    </edge>
    <edge id=":10926215908_0" function="internal">
        <lane id=":10926215908_0_0" index="0" disallow="tram rail_urban rail rail_electric rail_fast ship container cable_car subway aircraft wheelchair scooter drone" speed="6.08" length="7.76" shape="385.18,29.53 383.50,28.22 381.81,27.77 380.10,28.16 378.38,29.41"/>
    </edge>
    <edge id=":10926215908_1" function="internal">
        <lane id=":10926215908_1_0" index="0" disallow="tram rail_urban rail rail_electric rail_fast ship container cable_car subway aircraft wheelchair scooter drone" speed="3.90" length="2.59" shape="380.61,31.71 381.18,31.29 381.75,31.16 382.31,31.32 382.87,31.75"/>
    </edge>
    <edge id=":10926215909_0" function="internal">
        <lane id=":10926215909_0_0" index="0" disallow="tram rail_urban rail rail_electric rail_fast ship container cable_car subway aircraft wheelchair scooter drone" speed="3.65" length="4.67" shape="441.63,92.82 443.04,93.13 443.89,92.86 444.19,92.02 443.93,90.60"/>
    </edge>
    <edge id=":10941396748_0" function="internal">
        <lane id=":10941396748_0_0" index="0" disallow="tram rail_urban rail rail_electric rail_fast ship container cable_car subway aircraft wheelchair scooter drone" speed="6.62" length="9.18" shape="206.79,1494.52 204.34,1494.27 202.53,1493.28 201.35,1491.54 200.82,1489.05"/>
    </edge>
    <edge id=":10941396748_1" function="internal">
        <lane id=":10941396748_1_0" index="0" disallow="tram rail_urban rail rail_electric rail_fast ship container cable_car subway aircraft wheelchair scooter drone" speed="13.89" length="14.40" shape="206.79,1494.52 192.40,1495.17"/>
    </edge>
    <edge id=":10941396748_2" function="internal">
        <lane id=":10941396748_2_0" index="0" disallow="tram rail_urban rail rail_electric rail_fast ship container cable_car subway aircraft wheelchair scooter drone" speed="3.65" length="4.67" shape="206.79,1494.52 205.63,1495.38 205.27,1496.19 205.70,1496.97 206.94,1497.72"/>
    </edge>
    <edge id=":10941396748_3" function="internal">
        <lane id=":10941396748_3_0" index="0" disallow="tram rail_urban rail rail_electric rail_fast ship container cable_car subway aircraft wheelchair scooter drone" speed="13.89" length="14.40" shape="192.55,1498.37 206.94,1497.72"/>
    </edge>
    <edge id=":10941396748_4" function="internal">
        <lane id=":10941396748_4_0" index="0" disallow="tram rail_urban rail rail_electric rail_fast ship container cable_car subway aircraft wheelchair scooter drone" speed="7.95" length="14.30" shape="192.55,1498.37 196.41,1497.63 199.08,1495.84 200.55,1492.98 200.82,1489.05"/>
    </edge>
    <edge id=":10941396748_5" function="internal">
        <lane id=":10941396748_5_0" index="0" disallow="tram rail_urban rail rail_electric rail_fast ship container cable_car subway aircraft wheelchair scooter drone" speed="3.65" length="4.67" shape="192.55,1498.37 193.71,1497.51 194.08,1496.70 193.64,1495.91 192.40,1495.17"/>
    </edge>
    <edge id=":10941396748_6" function="internal">
        <lane id=":10941396748_6_0" index="0" disallow="tram rail_urban rail rail_electric rail_fast ship container cable_car subway aircraft wheelchair scooter drone" speed="6.45" length="9.03" shape="197.63,1489.29 197.46,1491.76 196.53,1493.57 194.85,1494.71 192.40,1495.17"/>
    </edge>
    <edge id=":10941396748_7" function="internal">
        <lane id=":10941396748_7_0" index="0" disallow="tram rail_urban rail rail_electric rail_fast ship container cable_car subway aircraft wheelchair scooter drone" speed="8.09" length="14.23" shape="197.63,1489.29 198.46,1493.12 200.28,1495.81 203.11,1497.34 206.94,1497.72"/>
    </edge>
    <edge id=":10941396748_8" function="internal">
        <lane id=":10941396748_8_0" index="0" disallow="tram rail_urban rail rail_electric rail_fast ship container cable_car subway aircraft wheelchair scooter drone" speed="3.65" length="4.67" shape="197.63,1489.29 198.52,1490.42 199.35,1490.76 200.11,1490.31 200.82,1489.05"/>
    </edge>
    <edge id=":10941396749_0" function="internal">
        <lane id=":10941396749_0_0" index="0" disallow="tram rail_urban rail rail_electric rail_fast ship container cable_car subway aircraft wheelchair scooter drone" speed="3.65" length="4.67" shape="195.53,1416.51 194.64,1415.37 193.81,1415.03 193.04,1415.49 192.33,1416.75"/>
    </edge>
    <edge id=":10942351673_0" function="internal">
        <lane id=":10942351673_0_0" index="0" disallow="tram rail_urban rail rail_electric rail_fast ship container cable_car subway aircraft wheelchair scooter drone" speed="22.22" length="9.40" shape="686.34,1298.57 680.26,1305.74"/>
    </edge>
    <edge id=":10942351673_1" function="internal">
        <lane id=":10942351673_1_0" index="0" allow="pedestrian delivery bicycle" speed="6.86" length="3.27" shape="686.34,1298.57 684.85,1300.93 684.78,1301.40"/>
    </edge>
    <edge id=":10942351673_7" function="internal">
        <lane id=":10942351673_7_0" index="0" allow="pedestrian delivery bicycle" speed="6.86" length="6.92" shape="684.78,1301.40 684.48,1303.20 685.23,1305.38 687.09,1307.46"/>
    </edge>
    <edge id=":10942351673_2" function="internal">
        <lane id=":10942351673_2_0" index="0" allow="pedestrian delivery bicycle" speed="5.03" length="5.01" shape="689.15,1305.01 688.23,1303.99 687.87,1302.92 688.05,1301.80 688.78,1300.64"/>
    </edge>
    <edge id=":10942351673_3" function="internal">
        <lane id=":10942351673_3_0" index="0" allow="pedestrian delivery bicycle" speed="6.87" length="10.16" shape="689.15,1305.01 686.78,1303.53 684.51,1303.16 682.34,1303.90 680.26,1305.74"/>
    </edge>
    <edge id=":10942351673_4" function="internal">
        <lane id=":10942351673_4_0" index="0" allow="pedestrian delivery bicycle" speed="3.65" length="1.44" shape="689.15,1305.01 687.72,1304.85"/>
    </edge>
    <edge id=":10942351673_8" function="internal">
        <lane id=":10942351673_8_0" index="0" allow="pedestrian delivery bicycle" speed="3.65" length="3.23" shape="687.72,1304.85 686.90,1305.20 686.69,1306.07 687.09,1307.46"/>
    </edge>
    <edge id=":10942351673_5" function="internal">
        <lane id=":10942351673_5_0" index="0" allow="pedestrian delivery bicycle" speed="5.06" length="5.02" shape="682.70,1307.81 683.72,1306.90 684.80,1306.54 685.92,1306.73 687.09,1307.46"/>
    </edge>
    <edge id=":10942351673_6" function="internal">
        <lane id=":10942351673_6_0" index="0" disallow="tram rail_urban rail rail_electric rail_fast ship container cable_car subway aircraft wheelchair scooter drone" speed="22.22" length="9.40" shape="682.70,1307.81 688.78,1300.64"/>
    </edge>
    <edge id=":10942351674_0" function="internal">
        <lane id=":10942351674_0_0" index="0" allow="pedestrian delivery bicycle" speed="3.65" length="4.67" shape="757.22,1366.43 758.65,1366.59 759.47,1366.24 759.68,1365.37 759.28,1363.99"/>
    </edge>
    <edge id=":10942351676_0" function="internal">
        <lane id=":10942351676_0_0" index="0" disallow="tram rail_urban rail rail_electric rail_fast ship container cable_car subway aircraft wheelchair scooter drone" speed="22.22" length="9.42" shape="967.39,1469.36 967.06,1459.95"/>
    </edge>
    <edge id=":10942351676_1" function="internal">
        <lane id=":10942351676_1_0" index="0" allow="pedestrian delivery bicycle" speed="7.06" length="10.19" shape="967.39,1469.36 966.89,1466.74 965.62,1464.83 963.57,1463.64 960.75,1463.16"/>
    </edge>
    <edge id=":10942351676_2" function="internal">
        <lane id=":10942351676_2_0" index="0" allow="pedestrian delivery bicycle" speed="5.30" length="5.31" shape="960.62,1466.35 962.14,1466.60 963.24,1467.20 963.93,1468.16 964.19,1469.47"/>
    </edge>
    <edge id=":10942351676_3" function="internal">
        <lane id=":10942351676_3_0" index="0" allow="pedestrian delivery bicycle" speed="6.80" length="10.54" shape="960.62,1466.35 963.52,1466.05 965.56,1464.88 966.74,1462.85 967.06,1459.95"/>
    </edge>
    <edge id=":10942351676_4" function="internal">
        <lane id=":10942351676_4_0" index="0" allow="pedestrian delivery bicycle" speed="3.65" length="4.67" shape="960.62,1466.35 961.85,1465.60 962.28,1464.82 961.92,1464.00 960.75,1463.16"/>
    </edge>
    <edge id=":10942351676_5" function="internal">
        <lane id=":10942351676_5_0" index="0" allow="pedestrian delivery bicycle" speed="4.96" length="5.09" shape="963.86,1460.06 963.71,1461.46 963.14,1462.45 962.15,1463.01 960.75,1463.16"/>
    </edge>
    <edge id=":10942351676_6" function="internal">
        <lane id=":10942351676_6_0" index="0" disallow="tram rail_urban rail rail_electric rail_fast ship container cable_car subway aircraft wheelchair scooter drone" speed="22.22" length="9.42" shape="963.86,1460.06 964.19,1469.47"/>
    </edge>
    <edge id=":10942351679_0" function="internal">
        <lane id=":10942351679_0_0" index="0" allow="pedestrian delivery bicycle" speed="5.27" length="5.28" shape="962.06,1492.79 961.70,1494.08 960.94,1494.98 959.81,1495.49 958.29,1495.60"/>
    </edge>
    <edge id=":10942351679_1" function="internal">
        <lane id=":10942351679_1_0" index="0" disallow="tram rail_urban rail rail_electric rail_fast ship container cable_car subway aircraft wheelchair scooter drone" speed="22.22" length="9.42" shape="962.06,1492.79 960.97,1502.14"/>
    </edge>
    <edge id=":10942351679_2" function="internal">
        <lane id=":10942351679_2_0" index="0" disallow="tram rail_urban rail rail_electric rail_fast ship container cable_car subway aircraft wheelchair scooter drone" speed="22.22" length="9.42" shape="964.15,1502.52 965.24,1493.16"/>
    </edge>
    <edge id=":10942351679_3" function="internal">
        <lane id=":10942351679_3_0" index="0" allow="pedestrian delivery bicycle" speed="6.81" length="10.50" shape="964.15,1502.52 964.07,1499.61 963.07,1497.49 961.14,1496.16 958.29,1495.60"/>
    </edge>
    <edge id=":10942351679_4" function="internal">
        <lane id=":10942351679_4_0" index="0" allow="pedestrian delivery bicycle" speed="4.97" length="5.08" shape="958.13,1498.80 959.51,1499.07 960.45,1499.71 960.93,1500.74 960.97,1502.14"/>
    </edge>
    <edge id=":10942351679_5" function="internal">
        <lane id=":10942351679_5_0" index="0" allow="pedestrian delivery bicycle" speed="7.04" length="10.19" shape="958.13,1498.80 960.98,1498.56 963.12,1497.55 964.54,1495.75 965.24,1493.16"/>
    </edge>
    <edge id=":10942351679_6" function="internal">
        <lane id=":10942351679_6_0" index="0" allow="pedestrian delivery bicycle" speed="3.65" length="4.67" shape="958.13,1498.80 959.37,1498.06 959.81,1497.28 959.45,1496.46 958.29,1495.60"/>
    </edge>
    <edge id=":10942351682_0" function="internal">
        <lane id=":10942351682_0_0" index="0" disallow="tram rail_urban rail rail_electric rail_fast ship container cable_car subway aircraft wheelchair scooter drone" speed="13.89" length="14.54" shape="1041.37,1340.18 1028.79,1332.88"/>
    </edge>
    <edge id=":10942351682_1" function="internal">
        <lane id=":10942351682_1_0" index="0" disallow="tram rail_urban rail rail_electric rail_fast ship container cable_car subway aircraft wheelchair scooter drone" speed="8.34" length="14.59" shape="1041.37,1340.18 1037.99,1338.88 1034.70,1338.92 1031.49,1340.32 1028.35,1343.08"/>
    </edge>
    <edge id=":10942351682_2" function="internal">
        <lane id=":10942351682_2_0" index="0" disallow="tram rail_urban rail rail_electric rail_fast ship container cable_car subway aircraft wheelchair scooter drone" speed="3.65" length="4.67" shape="1041.37,1340.18 1039.93,1340.27 1039.18,1340.76 1039.12,1341.66 1039.76,1342.95"/>
    </edge>
    <edge id=":10942351682_3" function="internal">
        <lane id=":10942351682_3_0" index="0" disallow="tram rail_urban rail rail_electric rail_fast ship container cable_car subway aircraft wheelchair scooter drone" speed="7.43" length="10.18" shape="1030.73,1345.22 1032.96,1343.23 1035.21,1342.19 1037.48,1342.09 1039.76,1342.95"/>
    </edge>
    <edge id=":10942351682_4" function="internal">
        <lane id=":10942351682_4_0" index="0" disallow="tram rail_urban rail rail_electric rail_fast ship container cable_car subway aircraft wheelchair scooter drone" speed="7.68" length="15.05" shape="1030.73,1345.22 1033.10,1341.69 1033.57,1338.45 1032.13,1335.52 1028.79,1332.88"/>
    </edge>
    <edge id=":10942351682_5" function="internal">
        <lane id=":10942351682_5_0" index="0" disallow="tram rail_urban rail rail_electric rail_fast ship container cable_car subway aircraft wheelchair scooter drone" speed="2.78" length="4.67" shape="1030.73,1345.22 1030.94,1343.79 1030.61,1342.96 1029.75,1342.72 1028.35,1343.08"/>
    </edge>
    <edge id=":10942351682_6" function="internal">
        <lane id=":10942351682_6_0" index="0" disallow="tram rail_urban rail rail_electric rail_fast ship container cable_car subway aircraft wheelchair scooter drone" speed="6.10" length="9.06" shape="1027.19,1335.64 1029.20,1337.23 1030.06,1339.00 1029.78,1340.95 1028.35,1343.08"/>
    </edge>
    <edge id=":10942351682_7" function="internal">
        <lane id=":10942351682_7_0" index="0" disallow="tram rail_urban rail rail_electric rail_fast ship container cable_car subway aircraft wheelchair scooter drone" speed="13.89" length="14.54" shape="1027.19,1335.64 1039.76,1342.95"/>
    </edge>
    <edge id=":10942351682_8" function="internal">
        <lane id=":10942351682_8_0" index="0" disallow="tram rail_urban rail rail_electric rail_fast ship container cable_car subway aircraft wheelchair scooter drone" speed="3.65" length="4.67" shape="1027.19,1335.64 1028.63,1335.56 1029.37,1335.06 1029.43,1334.17 1028.79,1332.88"/>
    </edge>
    <edge id=":10942351683_0" function="internal">