<?xml version="1.0" encoding="UTF-8"?>

<!-- generated on 2025-12-21 00:20:31.864128 by Eclipse SUMO osmWebWizard.py UNKNOWN
<configuration>
    <net-file value="/home/yeet/Sumo/2025-12-21-00-20-20/osm.net.xml.gz"/>
    <output-trip-file value="/home/yeet/Sumo/2025-12-21-00-20-20/osm.motorcycle.trips.xml"/>
    <route-file value="/home/yeet/Sumo/2025-12-21-00-20-20/osm.motorcycle.rou.xml"/>
    <prefix value="motorcycle"/>
    <trip-attributes value="departLane=&quot;best&quot;"/>
    <fringe-start-attributes value="departSpeed=&quot;max&quot;"/>
    <vehicle-class value="motorcycle"/>
    <fringe-factor value="1"/>
    <edge-permission value="motorcycle"/>
    <via-edge-types value="highway.motorway,highway.motorway_link,highway.trunk_link,highway.primary_link,highway.secondary_link,highway.tertiary_link"/>
    <seed value="43"/>
    <max-distance value="1200.0"/>
    <remove-loops value="True"/>
    <insertion-density value="50.0"/>
</configuration>
-->

<routes xmlns:xsi="http://www.w3.org/2001/XMLSchema-instance" xsi:noNamespaceSchemaLocation="http://sumo.dlr.de/xsd/routes_file.xsd">
    <vType id="motorcycle_motorcycle" vClass="motorcycle"/>
    <trip id="motorcycle0" depart="0.00" from="-1190739880#0" to="31017861#3" departLane="best" type="motorcycle_motorcycle"/>
    <trip id="motorcycle1" depart="1.05" from="-215089911#2" to="1190739881" departLane="best" type="motorcycle_motorcycle"/>
    <trip id="motorcycle2" depart="2.09" from="215090046#1" to="566962242#0" departLane="best" type="motorcycle_motorcycle"/>
    <trip id="motorcycle3" depart="3.14" from="-825118129#1" to="1206809261#1" departLane="best" type="motorcycle_motorcycle"/>
    <trip id="motorcycle4" depart="4.18" from="-1164686614" to="1160006921#2" departLane="best" type="motorcycle_motorcycle" departSpeed="max"/>
    <trip id="motorcycle5" depart="5.23" from="-646210541#2" to="646210541#1" departLane="best" type="motorcycle_motorcycle"/>
    <trip id="motorcycle6" depart="6.27" from="1431976931" to="415046264" departLane="best" type="motorcycle_motorcycle"/>
    <trip id="motorcycle7" depart="7.32" from="-787858368#1" to="-215090022#0" departLane="best" type="motorcycle_motorcycle"/>
    <trip id="motorcycle8" depart="8.37" from="-646210541#4" to="-151770988#6" departLane="best" type="motorcycle_motorcycle"/>
    <trip id="motorcycle9" depart="9.41" from="1195576992#2" to="1206809261#0" departLane="best" type="motorcycle_motorcycle"/>
    <trip id="motorcycle10" depart="10.46" from="376927932#3" to="215089938" departLane="best" type="motorcycle_motorcycle"/>
    <trip id="motorcycle11" depart="11.50" from="1195576992#1" to="215089911#4" departLane="best" type="motorcycle_motorcycle"/>
    <trip id="motorcycle12" depart="12.55" from="-646210541#4" to="-1195576992#5" departLane="best" type="motorcycle_motorcycle"/>
    <trip id="motorcycle13" depart="13.59" from="-1195576992#10" to="749128442#4" departLane="best" type="motorcycle_motorcycle"/>
    <trip id="motorcycle14" depart="14.64" from="571283261#4" to="-566962242#6" departLane="best" type="motorcycle_motorcycle"/>
    <trip id="motorcycle15" depart="15.68" from="-1431978404#2" to="646210541#3" departLane="best" type="motorcycle_motorcycle"/>
    <trip id="motorcycle16" depart="16.73" from="215089904#4" to="749128442#0" departLane="best" type="motorcycle_motorcycle"/>
    <trip id="motorcycle17" depart="17.78" from="215089938" to="566888447#4" departLane="best" type="motorcycle_motorcycle"/>
    <trip id="motorcycle18" depart="18.82" from="659857898#2" to="-646210541#2" departLane="best" type="motorcycle_motorcycle"/>
    <trip id="motorcycle19" depart="19.87" from="1206815946" to="31017861#5" departLane="best" type="motorcycle_motorcycle"/>
    <trip id="motorcycle20" depart="20.91" from="-215089917#1" to="596071807#2" departLane="best" type="motorcycle_motorcycle"/>
    <trip id="motorcycle21" depart="21.96" from="423840850#0" to="-1195576992#6" departLane="best" type="motorcycle_motorcycle"/>
    <trip id="motorcycle22" depart="23.00" from="215089908#1" to="-749128442#1" departLane="best" type="motorcycle_motorcycle"/>
    <trip id="motorcycle23" depart="24.05" from="-215089976#0" to="215089945" departLane="best" type="motorcycle_motorcycle"/>
    <trip id="motorcycle24" depart="25.10" from="787945997" to="215089904#1" departLane="best" type="motorcycle_motorcycle"/>
    <trip id="motorcycle25" depart="26.14" from="-151770988#3" to="1206809261#0" departLane="best" type="motorcycle_motorcycle"/>
    <trip id="motorcycle26" depart="27.19" from="423840850#0" to="787858368#1" departLane="best" type="motorcycle_motorcycle"/>
    <trip id="motorcycle27" depart="28.23" from="31017861#3" to="-1195576992#11" departLane="best" type="motorcycle_motorcycle"/>
    <trip id="motorcycle28" depart="29.28" from="787858371" to="215089943" departLane="best" type="motorcycle_motorcycle" departSpeed="max"/>
    <trip id="motorcycle29" depart="30.32" from="-1431976928#0" to="215090070#1" departLane="best" type="motorcycle_motorcycle"/>
    <trip id="motorcycle30" depart="31.37" from="-215089916#1" to="566962242#7" departLane="best" type="motorcycle_motorcycle"/>
    <trip id="motorcycle31" depart="32.42" from="-151770988#0" to="151770988#0" departLane="best" type="motorcycle_motorcycle"/>
    <trip id="motorcycle32" depart="33.46" from="-789770470" to="-1195576992#10" departLane="best" type="motorcycle_motorcycle" departSpeed="max"/>
    <trip id="motorcycle33" depart="34.51" from="-1105791652" to="707832926#2" departLane="best" type="motorcycle_motorcycle"/>
    <trip id="motorcycle34" depart="35.55" from="820174849#1" to="-215089911#4" departLane="best" type="motorcycle_motorcycle"/>
    <trip id="motorcycle35" depart="36.60" from="31017880#4" to="825118129#4" departLane="best" type="motorcycle_motorcycle"/>
    <trip id="motorcycle36" depart="37.64" from="659857901" to="659857901" departLane="best" type="motorcycle_motorcycle"/>
    <trip id="motorcycle37" depart="38.69" from="-566962242#7" to="31017880#5" departLane="best" type="motorcycle_motorcycle"/>
    <trip id="motorcycle38" depart="39.73" from="1192595036#0" to="749128442#2" departLane="best" type="motorcycle_motorcycle" departSpeed="max"/>
    <trip id="motorcycle39" depart="40.78" from="235957078#1" to="596071807#0" departLane="best" type="motorcycle_motorcycle"/>
    <trip id="motorcycle40" depart="41.83" from="590993175" to="-787858368#0" departLane="best" type="motorcycle_motorcycle"/>
    <trip id="motorcycle41" depart="42.87" from="31017861#2" to="-151770988#5" departLane="best" type="motorcycle_motorcycle"/>
    <trip id="motorcycle42" depart="43.92" from="-215090021" to="749128442#2" departLane="best" type="motorcycle_motorcycle"/>
    <trip id="motorcycle43" depart="44.96" from="-746615675#3" to="235957078#2" departLane="best" type="motorcycle_motorcycle"/>
    <trip id="motorcycle44" depart="46.01" from="215089904#0" to="-376927932#0" departLane="best" type="motorcycle_motorcycle"/>
    <trip id="motorcycle45" depart="47.05" from="-566962242#1" to="-703884520#0" departLane="best" type="motorcycle_motorcycle"/>
    <trip id="motorcycle46" depart="48.10" from="-215089976#0" to="-215090022#0" departLane="best" type="motorcycle_motorcycle"/>
    <trip id="motorcycle47" depart="49.15" from="566962242#9" to="31017880#0" departLane="best" type="motorcycle_motorcycle"/>
    <trip id="motorcycle48" depart="50.19" from="787858369" to="215090070#3" departLane="best" type="motorcycle_motorcycle"/>
    <trip id="motorcycle49" depart="51.24" from="749128442#8" to="-235957078#2" departLane="best" type="motorcycle_motorcycle"/>
    <trip id="motorcycle50" depart="52.28" from="-215089976#2" to="-235957078#0" departLane="best" type="motorcycle_motorcycle"/>
    <trip id="motorcycle51" depart="53.33" from="-659857898#2" to="825118129#4" departLane="best" type="motorcycle_motorcycle"/>
    <trip id="motorcycle52" depart="54.37" from="-215090046#4" to="1190739880#0" departLane="best" type="motorcycle_motorcycle"/>
    <trip id="motorcycle53" depart="55.42" from="-1195576992#10" to="-1192595035" departLane="best" type="motorcycle_motorcycle"/>
    <trip id="motorcycle54" depart="56.47" from="1431976930#1" to="215089976#0" departLane="best" type="motorcycle_motorcycle"/>
    <trip id="motorcycle55" depart="57.51" from="1195576992#11" to="708292170" departLane="best" type="motorcycle_motorcycle"/>
    <trip id="motorcycle56" depart="58.56" from="596071807#0" to="787858368#0" departLane="best" type="motorcycle_motorcycle"/>
    <trip id="motorcycle57" depart="59.60" from="215089904#2" to="-376927932#2" departLane="best" type="motorcycle_motorcycle"/>
    <trip id="motorcycle58" depart="60.65" from="-215089904#4" to="415068142" departLane="best" type="motorcycle_motorcycle"/>
    <trip id="motorcycle59" depart="61.69" from="-215089916#1" to="-1121976097#0" departLane="best" type="motorcycle_motorcycle"/>
    <trip id="motorcycle60" depart="62.74" from="235957078#0" to="-215089911#4" departLane="best" type="motorcycle_motorcycle"/>
    <trip id="motorcycle61" depart="63.78" from="215089938" to="-215090070#1" departLane="best" type="motorcycle_motorcycle"/>
    <trip id="motorcycle62" depart="64.83" from="-749128442#6" to="-1160006921#2" departLane="best" type="motorcycle_motorcycle"/>
    <trip id="motorcycle63" depart="65.88" from="-646210541#4" to="-646210541#1" departLane="best" type="motorcycle_motorcycle"/>
    <trip id="motorcycle64" depart="66.92" from="-31017861#0" to="-215089916#3" departLane="best" type="motorcycle_motorcycle"/>
    <trip id="motorcycle65" depart="67.97" from="215089904#0" to="31017861#1" departLane="best" type="motorcycle_motorcycle"/>
    <trip id="motorcycle66" depart="69.01" from="-215090017#2" to="-1195576992#2" departLane="best" type="motorcycle_motorcycle"/>
    <trip id="motorcycle67" depart="70.06" from="-31017861#4" to="31017861#5" departLane="best" type="motorcycle_motorcycle"/>
    <trip id="motorcycle68" depart="71.10" from="-31017861#6" to="215090046#0" departLane="best" type="motorcycle_motorcycle"/>
    <trip id="motorcycle69" depart="72.15" from="-1195576992#6" to="31017861#6" departLane="best" type="motorcycle_motorcycle"/>
    <trip id="motorcycle70" depart="73.20" from="-215089911#1" to="-235978549" departLane="best" type="motorcycle_motorcycle"/>
    <trip id="motorcycle71" depart="74.24" from="31017880#1" to="1195576992#1" departLane="best" type="motorcycle_motorcycle"/>
    <trip id="motorcycle72" depart="75.29" from="215090004#0" to="-566962242#1" departLane="best" type="motorcycle_motorcycle"/>
    <trip id="motorcycle73" depart="76.33" from="215090046#0" to="-566962242#8" departLane="best" type="motorcycle_motorcycle"/>
    <trip id="motorcycle74" depart="77.38" from="1160006921#1" to="1177915924" departLane="best" type="motorcycle_motorcycle"/>
    <trip id="motorcycle75" depart="78.42" from="1431976931" to="596071807#1" departLane="best" type="motorcycle_motorcycle"/>
    <trip id="motorcycle76" depart="79.47" from="215089916#2" to="31017890#0" departLane="best" type="motorcycle_motorcycle"/>
    <trip id="motorcycle77" depart="80.52" from="1195576992#6" to="215089911#4" departLane="best" type="motorcycle_motorcycle"/>
    <trip id="motorcycle78" depart="81.56" from="-215090045#0" to="746615675#6" departLane="best" type="motorcycle_motorcycle"/>
    <trip id="motorcycle79" depart="82.61" from="-151770988#0" to="659857898#2" departLane="best" type="motorcycle_motorcycle"/>
    <trip id="motorcycle80" depart="83.65" from="659857898#0" to="-31017861#2" departLane="best" type="motorcycle_motorcycle"/>
    <trip id="motorcycle81" depart="84.70" from="825118129#2" to="215089968" departLane="best" type="motorcycle_motorcycle"/>
    <trip id="motorcycle82" depart="85.74" from="31017880#2" to="1431976929#0" departLane="best" type="motorcycle_motorcycle"/>
    <trip id="motorcycle83" depart="86.79" from="-235957078#2" to="1195576992#5" departLane="best" type="motorcycle_motorcycle"/>
    <trip id="motorcycle84" depart="87.84" from="-825118129#5" to="-566962242#7" departLane="best" type="motorcycle_motorcycle"/>
    <trip id="motorcycle85" depart="88.88" from="-566962242#9" to="1177776606" departLane="best" type="motorcycle_motorcycle"/>
    <trip id="motorcycle86" depart="89.93" from="-31017861#3" to="-215089917#1" departLane="best" type="motorcycle_motorcycle"/>
    <trip id="motorcycle87" depart="90.97" from="566888447#6" to="-746615675#2" departLane="best" type="motorcycle_motorcycle"/>
    <trip id="motorcycle88" depart="92.02" from="-596071807#2" to="566888447#1" departLane="best" type="motorcycle_motorcycle"/>
    <trip id="motorcycle89" depart="93.06" from="215225848" to="1178096191" departLane="best" type="motorcycle_motorcycle"/>
    <trip id="motorcycle90" depart="94.11" from="-415062373" to="566962242#1" departLane="best" type="motorcycle_motorcycle" departSpeed="max"/>
    <trip id="motorcycle91" depart="95.15" from="-215090070#2" to="1190739881" departLane="best" type="motorcycle_motorcycle"/>
    <trip id="motorcycle92" depart="96.20" from="-646210541#3" to="825118129#7" departLane="best" type="motorcycle_motorcycle"/>
    <trip id="motorcycle93" depart="97.25" from="-215090070#3" to="215089917#1" departLane="best" type="motorcycle_motorcycle"/>
    <trip id="motorcycle94" depart="98.29" from="1206815946" to="-1195576992#5" departLane="best" type="motorcycle_motorcycle"/>
    <trip id="motorcycle95" depart="99.34" from="-215089949#1" to="659857901" departLane="best" type="motorcycle_motorcycle"/>
    <trip id="motorcycle96" depart="100.38" from="-215089945" to="749128442#3" departLane="best" type="motorcycle_motorcycle"/>
    <trip id="motorcycle97" depart="101.43" from="215089904#6" to="31017880#4" departLane="best" type="motorcycle_motorcycle"/>
    <trip id="motorcycle98" depart="102.47" from="703914561#0" to="-376927932#1" departLane="best" type="motorcycle_motorcycle"/>
    <trip id="motorcycle99" depart="103.52" from="1192595036#0" to="708292170" departLane="best" type="motorcycle_motorcycle" departSpeed="max"/>
    <trip id="motorcycle100" depart="104.57" from="-215089976#0" to="-31017880#5" departLane="best" type="motorcycle_motorcycle"/>
    <trip id="motorcycle101" depart="105.61" from="646210542#1" to="590993175" departLane="best" type="motorcycle_motorcycle"/>
    <trip id="motorcycle102" depart="106.66" from="1195576992#4" to="-215089916#3" departLane="best" type="motorcycle_motorcycle"/>
    <trip id="motorcycle103" depart="107.70" from="31017896#2" to="-31017880#5" departLane="best" type="motorcycle_motorcycle"/>
    <trip id="motorcycle104" depart="108.75" from="-215089916#1" to="31017861#2" departLane="best" type="motorcycle_motorcycle"/>
    <trip id="motorcycle105" depart="109.79" from="-703914561#1" to="-749128442#4" departLane="best" type="motorcycle_motorcycle" departSpeed="max"/>
    <trip id="motorcycle106" depart="110.84" from="-787858372" to="1190739880#1" departLane="best" type="motorcycle_motorcycle" departSpeed="max"/>
    <trip id="motorcycle107" depart="111.89" from="-992634229#1" to="215090046#1" departLane="best" type="motorcycle_motorcycle"/>
    <trip id="motorcycle108" depart="112.93" from="-1431978404#3" to="215090078#1" departLane="best" type="motorcycle_motorcycle"/>
    <trip id="motorcycle109" depart="113.98" from="-31017880#4" to="215090070#2" departLane="best" type="motorcycle_motorcycle"/>
    <trip id="motorcycle110" depart="115.02" from="-215090021" to="31017861#4" departLane="best" type="motorcycle_motorcycle"/>
    <trip id="motorcycle111" depart="116.07" from="215090070#0" to="151770988#5" departLane="best" type="motorcycle_motorcycle"/>
    <trip id="motorcycle112" depart="117.11" from="-590993175" to="-1431978404#3" departLane="best" type="motorcycle_motorcycle"/>
    <trip id="motorcycle113" depart="118.16" from="-566962242#4" to="-1195576992#2" departLane="best" type="motorcycle_motorcycle"/>
    <trip id="motorcycle114" depart="119.20" from="646210542#6" to="588859419#2" departLane="best" type="motorcycle_motorcycle"/>
    <trip id="motorcycle115" depart="120.25" from="-215089968" to="215090018" departLane="best" type="motorcycle_motorcycle" departSpeed="max"/>
    <trip id="motorcycle116" depart="121.30" from="-215090019" to="646210541#2" departLane="best" type="motorcycle_motorcycle" departSpeed="max"/>
    <trip id="motorcycle117" depart="122.34" from="-749128442#1" to="-1305503506" departLane="best" type="motorcycle_motorcycle"/>
    <trip id="motorcycle118" depart="123.39" from="215089976#0" to="-151770988#0" departLane="best" type="motorcycle_motorcycle"/>
    <trip id="motorcycle119" depart="124.43" from="659857898#0" to="746615675#5" departLane="best" type="motorcycle_motorcycle"/>
    <trip id="motorcycle120" depart="125.48" from="215089917#0" to="-31017880#0" departLane="best" type="motorcycle_motorcycle"/>
    <trip id="motorcycle121" depart="126.52" from="415046264" to="-1195576992#10" departLane="best" type="motorcycle_motorcycle"/>
    <trip id="motorcycle122" depart="127.57" from="215090046#0" to="566962242#7" departLane="best" type="motorcycle_motorcycle"/>
    <trip id="motorcycle123" depart="128.62" from="215090022#0" to="-235978549" departLane="best" type="motorcycle_motorcycle"/>
    <trip id="motorcycle124" depart="129.66" from="-31017880#0" to="215089949#0" departLane="best" type="motorcycle_motorcycle"/>
    <trip id="motorcycle125" depart="130.71" from="566888436#0" to="215090017#1" departLane="best" type="motorcycle_motorcycle"/>
    <trip id="motorcycle126" depart="131.75" from="-423843627#0" to="566962242#4" departLane="best" type="motorcycle_motorcycle"/>
    <trip id="motorcycle127" depart="132.80" from="-746615675#5" to="215090017#2" departLane="best" type="motorcycle_motorcycle"/>
    <trip id="motorcycle128" depart="133.84" from="588859419#1" to="215090070#0" departLane="best" type="motorcycle_motorcycle"/>
    <trip id="motorcycle129" depart="134.89" from="-825118129#3" to="215089917#0" departLane="best" type="motorcycle_motorcycle"/>
    <trip id="motorcycle130" depart="135.94" from="-215090019" to="1164686616" departLane="best" type="motorcycle_motorcycle" departSpeed="max"/>
    <trip id="motorcycle131" depart="136.98" from="-1160006921#2" to="569823304" departLane="best" type="motorcycle_motorcycle"/>
    <trip id="motorcycle132" depart="138.03" from="-215089916#1" to="-1192595036#1" departLane="best" type="motorcycle_motorcycle"/>
    <trip id="motorcycle133" depart="139.07" from="215089904#2" to="423840850#0" departLane="best" type="motorcycle_motorcycle"/>
    <trip id="motorcycle134" depart="140.12" from="-825118129#4" to="-215089911#4" departLane="best" type="motorcycle_motorcycle"/>
    <trip id="motorcycle135" depart="141.16" from="215089945" to="-31017880#3" departLane="best" type="motorcycle_motorcycle"/>
    <trip id="motorcycle136" depart="142.21" from="215090077" to="1217688135#0" departLane="best" type="motorcycle_motorcycle"/>
    <trip id="motorcycle137" depart="143.25" from="361760638" to="-1160006921#0" departLane="best" type="motorcycle_motorcycle" departSpeed="max"/>
    <trip id="motorcycle138" depart="144.30" from="-415068142" to="-215089904#2" departLane="best" type="motorcycle_motorcycle"/>
    <trip id="motorcycle139" depart="145.35" from="-1431976928#0" to="-1160006921#0" departLane="best" type="motorcycle_motorcycle"/>
    <trip id="motorcycle140" depart="146.39" from="1195576992#9" to="-1431976931" departLane="best" type="motorcycle_motorcycle"/>
    <trip id="motorcycle141" depart="147.44" from="-151770988#4" to="1160006921#2" departLane="best" type="motorcycle_motorcycle"/>
    <trip id="motorcycle142" depart="148.48" from="215090064" to="-215090070#1" departLane="best" type="motorcycle_motorcycle"/>
    <trip id="motorcycle143" depart="149.53" from="215090022#0" to="215089904#4" departLane="best" type="motorcycle_motorcycle"/>
    <trip id="motorcycle144" depart="150.57" from="708292171" to="566962242#8" departLane="best" type="motorcycle_motorcycle"/>
    <trip id="motorcycle145" depart="151.62" from="825118129#5" to="-746615675#2" departLane="best" type="motorcycle_motorcycle"/>
    <trip id="motorcycle146" depart="152.67" from="646210542#3" to="-596071807#1" departLane="best" type="motorcycle_motorcycle"/>
    <trip id="motorcycle147" depart="153.71" from="-31017880#2" to="1154579502" departLane="best" type="motorcycle_motorcycle"/>
    <trip id="motorcycle148" depart="154.76" from="-1177776606" to="31017890#0" departLane="best" type="motorcycle_motorcycle" departSpeed="max"/>
    <trip id="motorcycle149" depart="155.80" from="-1431976928#1" to="215089976#0" departLane="best" type="motorcycle_motorcycle"/>
    <trip id="motorcycle150" depart="156.85" from="-1195576992#1" to="1154579502" departLane="best" type="motorcycle_motorcycle"/>
    <trip id="motorcycle151" depart="157.89" from="-235957078#1" to="749128442#6" departLane="best" type="motorcycle_motorcycle"/>
    <trip id="motorcycle152" depart="158.94" from="-376927932#2" to="-746615675#2" departLane="best" type="motorcycle_motorcycle"/>
    <trip id="motorcycle153" depart="159.99" from="-415062368" to="-215089911#5" departLane="best" type="motorcycle_motorcycle" departSpeed="max"/>
    <trip id="motorcycle154" depart="161.03" from="215090005" to="-566962242#9" departLane="best" type="motorcycle_motorcycle" departSpeed="max"/>
    <trip id="motorcycle155" depart="162.08" from="-31017861#5" to="-588859419#3" departLane="best" type="motorcycle_motorcycle"/>
    <trip id="motorcycle156" depart="163.12" from="-588859419#3" to="566962242#0" departLane="best" type="motorcycle_motorcycle"/>
    <trip id="motorcycle157" depart="164.17" from="-215090045#2" to="-215089911#4" departLane="best" type="motorcycle_motorcycle"/>
    <trip id="motorcycle158" depart="165.21" from="-566962242#4" to="215089911#1" departLane="best" type="motorcycle_motorcycle"/>
    <trip id="motorcycle159" depart="166.26" from="-31017880#2" to="-215089904#6" departLane="best" type="motorcycle_motorcycle"/>
    <trip id="motorcycle160" depart="167.30" from="-590993175" to="787945997" departLane="best" type="motorcycle_motorcycle"/>
    <trip id="motorcycle161" depart="168.35" from="-787858368#0" to="-215090018" departLane="best" type="motorcycle_motorcycle"/>
    <trip id="motorcycle162" depart="169.40" from="215090046#1" to="31017880#6" departLane="best" type="motorcycle_motorcycle"/>
    <trip id="motorcycle163" depart="170.44" from="-235978549" to="215090017#2" departLane="best" type="motorcycle_motorcycle"/>
    <trip id="motorcycle164" depart="171.49" from="-1431978404#1" to="-588859419#4" departLane="best" type="motorcycle_motorcycle"/>
    <trip id="motorcycle165" depart="172.53" from="-31017880#5" to="566962242#1" departLane="best" type="motorcycle_motorcycle"/>
    <trip id="motorcycle166" depart="173.58" from="215089917#2" to="1431976928#0" departLane="best" type="motorcycle_motorcycle"/>
    <trip id="motorcycle167" depart="174.62" from="-787858372" to="215089904#1" departLane="best" type="motorcycle_motorcycle" departSpeed="max"/>
    <trip id="motorcycle168" depart="175.67" from="1160006921#1" to="-31017880#6" departLane="best" type="motorcycle_motorcycle"/>
    <trip id="motorcycle169" depart="176.72" from="571283261#0" to="566962242#1" departLane="best" type="motorcycle_motorcycle" departSpeed="max"/>
    <trip id="motorcycle170" depart="177.76" from="-703816434" to="-825118129#1" departLane="best" type="motorcycle_motorcycle" departSpeed="max"/>
    <trip id="motorcycle171" depart="178.81" from="708292171" to="-1190739880#1" departLane="best" type="motorcycle_motorcycle"/>
    <trip id="motorcycle172" depart="179.85" from="376927932#1" to="-215090017#1" departLane="best" type="motorcycle_motorcycle"/>
    <trip id="motorcycle173" depart="180.90" from="-215090004#0" to="-703914562" departLane="best" type="motorcycle_motorcycle"/>
    <trip id="motorcycle174" depart="181.94" from="215089941" to="-596071807#0" departLane="best" type="motorcycle_motorcycle"/>
    <trip id="motorcycle175" depart="182.99" from="1195576992#5" to="1431976928#1" departLane="best" type="motorcycle_motorcycle"/>
    <trip id="motorcycle176" depart="184.04" from="-31017861#5" to="215090021" departLane="best" type="motorcycle_motorcycle"/>
    <trip id="motorcycle177" depart="185.08" from="1431978404#3" to="-569823304" departLane="best" type="motorcycle_motorcycle"/>
    <trip id="motorcycle178" depart="186.13" from="31017861#7" to="-1160006921#0" departLane="best" type="motorcycle_motorcycle"/>
    <trip id="motorcycle179" depart="187.17" from="825118129#2" to="646210542#6" departLane="best" type="motorcycle_motorcycle"/>
    <trip id="motorcycle180" depart="188.22" from="-1195576992#10" to="31017880#2" departLane="best" type="motorcycle_motorcycle"/>
    <trip id="motorcycle181" depart="189.26" from="-215089904#4" to="825118129#4" departLane="best" type="motorcycle_motorcycle"/>
    <trip id="motorcycle182" depart="190.31" from="-825118129#0" to="376927932#0" departLane="best" type="motorcycle_motorcycle"/>
    <trip id="motorcycle183" depart="191.35" from="-235957078#2" to="215090046#4" departLane="best" type="motorcycle_motorcycle"/>
    <trip id="motorcycle184" depart="192.40" from="-1178096191" to="566962242#2" departLane="best" type="motorcycle_motorcycle" departSpeed="max"/>
    <trip id="motorcycle185" depart="193.45" from="-31017861#3" to="-215090018" departLane="best" type="motorcycle_motorcycle"/>
    <trip id="motorcycle186" depart="194.49" from="-787945997" to="1217688135#0" departLane="best" type="motorcycle_motorcycle"/>
    <trip id="motorcycle187" depart="195.54" from="-1190741184" to="-215090017#0" departLane="best" type="motorcycle_motorcycle" departSpeed="max"/>
    <trip id="motorcycle188" depart="196.58" from="-659857898#1" to="151770988#5" departLane="best" type="motorcycle_motorcycle"/>
    <trip id="motorcycle189" depart="197.63" from="235957078#0" to="-215089916#3" departLane="best" type="motorcycle_motorcycle"/>
    <trip id="motorcycle190" depart="198.67" from="566962242#7" to="-746615675#3" departLane="best" type="motorcycle_motorcycle"/>
    <trip id="motorcycle191" depart="199.72" from="825118129#4" to="-749128442#2" departLane="best" type="motorcycle_motorcycle"/>
    <trip id="motorcycle192" depart="200.77" from="-806357169#0" to="-746615675#3" departLane="best" type="motorcycle_motorcycle"/>
    <trip id="motorcycle193" depart="201.81" from="-1206809261#1" to="746615675#5" departLane="best" type="motorcycle_motorcycle" departSpeed="max"/>
    <trip id="motorcycle194" depart="202.86" from="215089908#1" to="415046264" departLane="best" type="motorcycle_motorcycle"/>
    <trip id="motorcycle195" depart="203.90" from="-215089916#1" to="1195576992#5" departLane="best" type="motorcycle_motorcycle"/>
    <trip id="motorcycle196" depart="204.95" from="-31017880#3" to="-415046264" departLane="best" type="motorcycle_motorcycle"/>
    <trip id="motorcycle197" depart="205.99" from="-703914561#1" to="215090017#2" departLane="best" type="motorcycle_motorcycle" departSpeed="max"/>
    <trip id="motorcycle198" depart="207.04" from="-825118129#2" to="31017861#4" departLane="best" type="motorcycle_motorcycle"/>
    <trip id="motorcycle199" depart="208.09" from="825118129#3" to="215089916#4" departLane="best" type="motorcycle_motorcycle"/>
    <trip id="motorcycle200" depart="209.13" from="566888447#4" to="787858368#0" departLane="best" type="motorcycle_motorcycle"/>
    <trip id="motorcycle201" depart="210.18" from="806357169#0" to="-703914561#0" departLane="best" type="motorcycle_motorcycle"/>
    <trip id="motorcycle202" depart="211.22" from="571283261#4" to="31017861#4" departLane="best" type="motorcycle_motorcycle"/>
    <trip id="motorcycle203" depart="212.27" from="659857898#2" to="703914562" departLane="best" type="motorcycle_motorcycle"/>
    <trip id="motorcycle204" depart="213.31" from="-566962242#7" to="31017890#2" departLane="best" type="motorcycle_motorcycle"/>
    <trip id="motorcycle205" depart="214.36" from="566962242#9" to="1177915924" departLane="best" type="motorcycle_motorcycle"/>
    <trip id="motorcycle206" depart="215.40" from="215089976#2" to="-749128442#7" departLane="best" type="motorcycle_motorcycle"/>
    <trip id="motorcycle207" depart="216.45" from="-215090077" to="1160006921#0" departLane="best" type="motorcycle_motorcycle"/>
    <trip id="motorcycle208" depart="217.50" from="215089904#6" to="-749128442#4" departLane="best" type="motorcycle_motorcycle"/>
    <trip id="motorcycle209" depart="218.54" from="-566962242#2" to="215090018" departLane="best" type="motorcycle_motorcycle"/>
    <trip id="motorcycle210" depart="219.59" from="-423840850#1" to="1195576992#6" departLane="best" type="motorcycle_motorcycle"/>
    <trip id="motorcycle211" depart="220.63" from="-566962242#1" to="-749128442#5" departLane="best" type="motorcycle_motorcycle"/>
    <trip id="motorcycle212" depart="221.68" from="-1178097064" to="825118129#4" departLane="best" type="motorcycle_motorcycle" departSpeed="max"/>
    <trip id="motorcycle213" depart="222.72" from="215089904#4" to="-1195576992#10" departLane="best" type="motorcycle_motorcycle"/>
    <trip id="motorcycle214" depart="223.77" from="151770988#5" to="708292170" departLane="best" type="motorcycle_motorcycle"/>
    <trip id="motorcycle215" depart="224.82" from="-1195576992#1" to="1195576992#1" departLane="best" type="motorcycle_motorcycle"/>
    <trip id="motorcycle216" depart="225.86" from="571283261#2" to="-31017861#5" departLane="best" type="motorcycle_motorcycle"/>
    <trip id="motorcycle217" depart="226.91" from="-215089904#5" to="-1305503506" departLane="best" type="motorcycle_motorcycle"/>
    <trip id="motorcycle218" depart="227.95" from="-749128442#7" to="-703914561#0" departLane="best" type="motorcycle_motorcycle"/>