<?xml version="1.0" encoding="UTF-8"?>

<!-- generated on 2025-12-21T00:20:35.527198+05:30 by Eclipse SUMO sumo 1.25.0
-->

<sumoConfiguration xmlns:xsi="http://www.w3.org/2001/XMLSchema-instance" xsi:noNamespaceSchemaLocation="http://sumo.dlr.de/xsd/sumoConfiguration.xsd">

    <input>
        <net-file value="osm2.net.xml.gz"/>
        <route-files value="
  osm.passenger.trips_scaled.xml,
  osm.motorcycle.trips_scaled.xml,
  osm.bus.trips_scaled.xml,
  osm.truck.trips_scaled.xml"/>

        <additional-files value="osm.poly.xml.gz,output.add.xml,rl_traffic_lights.add.xml"/>
        <!-- rl_traffic_lights.add.xml -->
        
    </input>

    <output>
        <tripinfo-output value="tripinfos.xml"/>
        <statistic-output value="stats.xml"/>
    </output>

    <processing>
        <ignore-route-errors value="true"/>
        <tls.actuated.jam-threshold value="30"/>
    </processing>

    <routing>
        <device.rerouting.adaptation-steps value="18"/>
        <device.rerouting.adaptation-interval value="10"/>
    </routing>

    <report>
        <verbose value="true"/>
        <duration-log.statistics value="true"/>
        <no-step-log value="true"/>
    </report>

    <gui_only>
        <gui-settings-file value="osm.view.xml"/>
    </gui_only>

</sumoConfiguration>
