<?xml version="1.0" encoding="UTF-8"?>

<!-- generated on 2025-12-21 00:20:35.256425 by Eclipse SUMO osmWebWizard.py UNKNOWN
<configuration>
    <net-file value="/home/yeet/Sumo/2025-12-21-00-20-20/osm.net.xml.gz"/>
    <output-trip-file value="/home/yeet/Sumo/2025-12-21-00-20-20/osm.truck.trips.xml"/>
    <route-file value="/home/yeet/Sumo/2025-12-21-00-20-20/osm.truck.rou.xml"/>
    <prefix value="truck"/>
    <trip-attributes value="departLane=&quot;best&quot;"/>
    <fringe-start-attributes value="departSpeed=&quot;max&quot;"/>
    <vehicle-class value="truck"/>
    <fringe-factor value="1"/>
    <edge-permission value="truck"/>
    <via-edge-types value="highway.motorway,highway.motorway_link,highway.trunk_link,highway.primary_link,highway.secondary_link,highway.tertiary_link"/>
    <seed value="45"/>
    <min-distance value="600.0"/>
    <min-distance.fringe value="10.0"/>
    <remove-loops value="True"/>
    <insertion-density value="20.0"/>
</configuration>
-->

<routes xmlns:xsi="http://www.w3.org/2001/XMLSchema-instance" xsi:noNamespaceSchemaLocation="http://sumo.dlr.de/xsd/routes_file.xsd">
    <vType id="truck_truck" vClass="truck"/>
    <trip id="truck0" depart="0.00" from="-31017861#5" to="1195576992#6" departLane="best" type="truck_truck"/>
    <trip id="truck1" depart="2.61" from="-1206809261#1" to="-659857898#1" departLane="best" type="truck_truck" departSpeed="max"/>
    <trip id="truck2" depart="5.23" from="-1195576992#6" to="-1160006921#0" departLane="best" type="truck_truck"/>
    <trip id="truck3" depart="7.84" from="-31017880#3" to="-215089911#1" departLane="best" type="truck_truck"/>
    <trip id="truck4" depart="10.46" from="-415062374" to="361760637" departLane="best" type="truck_truck" departSpeed="max"/>
    <trip id="truck5" depart="13.07" from="588859419#0" to="31017880#5" departLane="best" type="truck_truck"/>
    <trip id="truck6" depart="15.68" from="235957078#0" to="746615675#3" departLane="best" type="truck_truck"/>
    <trip id="truck7" depart="18.30" from="-1431976930#1" to="-151770988#4" departLane="best" type="truck_truck"/>
    <trip id="truck8" depart="20.91" from="31017890#4" to="-590993175" departLane="best" type="truck_truck"/>
    <trip id="truck9" depart="23.53" from="-703816434" to="659857898#0" departLane="best" type="truck_truck" departSpeed="max"/>
    <trip id="truck10" depart="26.14" from="31017890#2" to="215090064" departLane="best" type="truck_truck"/>
    <trip id="truck11" depart="28.76" from="215089911#0" to="-1305503506" departLane="best" type="truck_truck"/>
    <trip id="truck12" depart="31.37" from="-215089911#2" to="1187096043" departLane="best" type="truck_truck"/>
    <trip id="truck13" depart="33.98" from="-1178096191" to="646210541#4" departLane="best" type="truck_truck" departSpeed="max"/>
    <trip id="truck14" depart="36.60" from="215090022#0" to="1431976930#1" departLane="best" type="truck_truck"/>
    <trip id="truck15" depart="39.21" from="215089904#1" to="-746615675#4" departLane="best" type="truck_truck"/>
    <trip id="truck16" depart="41.83" from="-31017880#0" to="1175896817" departLane="best" type="truck_truck"/>
    <trip id="truck17" depart="44.44" from="-566962242#2" to="820174848#2" departLane="best" type="truck_truck"/>
    <trip id="truck18" depart="47.05" from="-215089911#4" to="-1190740105" departLane="best" type="truck_truck"/>
    <trip id="truck19" depart="49.67" from="787945997" to="596071807#1" departLane="best" type="truck_truck"/>
    <trip id="truck20" depart="52.28" from="423843627#1" to="703914561#1" departLane="best" type="truck_truck"/>
    <trip id="truck21" depart="54.90" from="-703914561#0" to="215089943" departLane="best" type="truck_truck"/>
    <trip id="truck22" depart="57.51" from="-1305503506" to="31017861#3" departLane="best" type="truck_truck"/>
    <trip id="truck23" depart="60.13" from="31017896#1" to="1178096191" departLane="best" type="truck_truck"/>
    <trip id="truck24" depart="62.74" from="588859419#1" to="-787858368#1" departLane="best" type="truck_truck"/>
    <trip id="truck25" depart="65.35" from="571283261#1" to="-749128442#7" departLane="best" type="truck_truck"/>
    <trip id="truck26" depart="67.97" from="-746615675#2" to="-749128442#5" departLane="best" type="truck_truck"/>
    <trip id="truck27" depart="70.58" from="31017861#1" to="659857898#3" departLane="best" type="truck_truck"/>
    <trip id="truck28" depart="73.20" from="646210542#4" to="-215225848" departLane="best" type="truck_truck"/>
    <trip id="truck29" depart="75.81" from="1195576992#7" to="31017880#0" departLane="best" type="truck_truck"/>
    <trip id="truck30" depart="78.42" from="703914562" to="-31017861#1" departLane="best" type="truck_truck"/>
    <trip id="truck31" depart="81.04" from="-215090046#5" to="-1195576992#6" departLane="best" type="truck_truck"/>
    <trip id="truck32" depart="83.65" from="571283261#4" to="-749128442#7" departLane="best" type="truck_truck"/>
    <trip id="truck33" depart="86.27" from="-1192068859" to="423840850#1" departLane="best" type="truck_truck" departSpeed="max"/>
    <trip id="truck34" depart="88.88" from="659857898#2" to="215089911#0" departLane="best" type="truck_truck"/>
    <trip id="truck35" depart="91.49" from="-659857898#3" to="588859419#1" departLane="best" type="truck_truck"/>
    <trip id="truck36" depart="94.11" from="-1195576992#10" to="-746615675#4" departLane="best" type="truck_truck"/>
    <trip id="truck37" depart="96.72" from="-215090046#1" to="-825118129#3" departLane="best" type="truck_truck"/>
    <trip id="truck38" depart="99.34" from="215089908#1" to="566888433#1" departLane="best" type="truck_truck"/>
    <trip id="truck39" depart="101.95" from="-746615675#5" to="215089911#6" departLane="best" type="truck_truck"/>
    <trip id="truck40" depart="104.57" from="-1431978404#0" to="215090064" departLane="best" type="truck_truck"/>
    <trip id="truck41" depart="107.18" from="31017861#6" to="820174849#0" departLane="best" type="truck_truck"/>
    <trip id="truck42" depart="109.79" from="596071807#3" to="215090070#3" departLane="best" type="truck_truck"/>
    <trip id="truck43" depart="112.41" from="215089904#1" to="746615675#3" departLane="best" type="truck_truck"/>
    <trip id="truck44" depart="115.02" from="-659857898#1" to="-1190739880#0" departLane="best" type="truck_truck"/>
    <trip id="truck45" depart="117.64" from="-215089904#0" to="151770988#2" departLane="best" type="truck_truck"/>
    <trip id="truck46" depart="120.25" from="571283261#8" to="-1195576992#5" departLane="best" type="truck_truck"/>
    <trip id="truck47" depart="122.86" from="-749128442#0" to="-659857898#1" departLane="best" type="truck_truck"/>
    <trip id="truck48" depart="125.48" from="1195576992#0" to="-415046264" departLane="best" type="truck_truck" departSpeed="max"/>
    <trip id="truck49" depart="128.09" from="646210541#1" to="566962242#8" departLane="best" type="truck_truck"/>
    <trip id="truck50" depart="130.71" from="659857898#2" to="-215089911#5" departLane="best" type="truck_truck"/>
    <trip id="truck51" depart="133.32" from="1305503506" to="-31017861#5" departLane="best" type="truck_truck"/>
    <trip id="truck52" depart="135.94" from="-1431976931" to="746615675#5" departLane="best" type="truck_truck"/>
    <trip id="truck53" depart="138.55" from="215090022#1" to="1187096043" departLane="best" type="truck_truck"/>
    <trip id="truck54" depart="141.16" from="-749128442#3" to="-215090046#5" departLane="best" type="truck_truck"/>
    <trip id="truck55" depart="143.78" from="1195576992#7" to="646210542#3" departLane="best" type="truck_truck"/>
    <trip id="truck56" depart="146.39" from="746615675#3" to="-215089917#2" departLane="best" type="truck_truck"/>
    <trip id="truck57" depart="149.01" from="-151770988#6" to="825118129#5" departLane="best" type="truck_truck"/>
    <trip id="truck58" depart="151.62" from="749128442#3" to="659857898#0" departLane="best" type="truck_truck"/>
    <trip id="truck59" depart="154.23" from="31017896#1" to="215089949#0" departLane="best" type="truck_truck"/>
    <trip id="truck60" depart="156.85" from="571283261#0" to="596071807#3" departLane="best" type="truck_truck" departSpeed="max"/>
    <trip id="truck61" depart="159.46" from="-646210541#1" to="415062374" departLane="best" type="truck_truck"/>
    <trip id="truck62" depart="162.08" from="-789770470" to="215090004#0" departLane="best" type="truck_truck" departSpeed="max"/>
    <trip id="truck63" depart="164.69" from="-1431976930#1" to="-215089911#3" departLane="best" type="truck_truck"/>
    <trip id="truck64" depart="167.30" from="-1175896817" to="151770986" departLane="best" type="truck_truck" departSpeed="max"/>
    <trip id="truck65" depart="169.92" from="-1164686614" to="-1195576992#10" departLane="best" type="truck_truck" departSpeed="max"/>
    <trip id="truck66" depart="172.53" from="215089917#0" to="-746615675#2" departLane="best" type="truck_truck"/>
    <trip id="truck67" depart="175.15" from="571283261#1" to="215090046#3" departLane="best" type="truck_truck"/>
    <trip id="truck68" depart="177.76" from="588859419#4" to="-703914562" departLane="best" type="truck_truck"/>
    <trip id="truck69" depart="180.38" from="749128442#5" to="-215090046#5" departLane="best" type="truck_truck"/>
    <trip id="truck70" depart="182.99" from="-703914562" to="-215090046#3" departLane="best" type="truck_truck"/>
    <trip id="truck71" depart="185.60" from="215090018" to="376927932#2" departLane="best" type="truck_truck"/>
    <trip id="truck72" depart="188.22" from="646210541#4" to="-215089917#1" departLane="best" type="truck_truck"/>
    <trip id="truck73" depart="190.83" from="-31017861#4" to="215090078#0" departLane="best" type="truck_truck"/>
    <trip id="truck74" depart="193.45" from="-31017861#6" to="-151770988#2" departLane="best" type="truck_truck"/>
    <trip id="truck75" depart="196.06" from="-215090045#2" to="646210541#4" departLane="best" type="truck_truck"/>
    <trip id="truck76" depart="198.67" from="-646210541#2" to="215090046#4" departLane="best" type="truck_truck"/>
    <trip id="truck77" depart="201.29" from="-806357169#0" to="-31017861#4" departLane="best" type="truck_truck"/>
    <trip id="truck78" depart="203.90" from="-749128442#8" to="-215090046#4" departLane="best" type="truck_truck"/>
    <trip id="truck79" depart="206.52" from="-415062374" to="235957078#2" departLane="best" type="truck_truck" departSpeed="max"/>
    <trip id="truck80" depart="209.13" from="571283261#1" to="1206809261#1" departLane="best" type="truck_truck"/>
    <trip id="truck81" depart="211.75" from="1195576992#5" to="-1187096042#0" departLane="best" type="truck_truck"/>
    <trip id="truck82" depart="214.36" from="215090046#4" to="1217688135#2" departLane="best" type="truck_truck"/>
    <trip id="truck83" depart="216.97" from="-566962242#8" to="646210541#2" departLane="best" type="truck_truck"/>
    <trip id="truck84" depart="219.59" from="415068142" to="707832926#6" departLane="best" type="truck_truck"/>
    <trip id="truck85" depart="222.20" from="151770988#2" to="-31017861#0" departLane="best" type="truck_truck"/>
    <trip id="truck86" depart="224.82" from="590993175" to="-215089976#2" departLane="best" type="truck_truck"/>
    <trip id="truck87" depart="227.43" from="-215089917#1" to="215090022#0" departLane="best" type="truck_truck"/>
    <trip id="truck88" depart="230.04" from="-215089908#1" to="415062374" departLane="best" type="truck_truck"/>
    <trip id="truck89" depart="232.66" from="-659857898#1" to="-1105791652" departLane="best" type="truck_truck"/>
    <trip id="truck90" depart="235.27" from="-789770471" to="151770988#5" departLane="best" type="truck_truck" departSpeed="max"/>
    <trip id="truck91" depart="237.89" from="31017890#2" to="215090022#0" departLane="best" type="truck_truck"/>
    <trip id="truck92" depart="240.50" from="215090022#1" to="1078958802#1" departLane="best" type="truck_truck"/>
    <trip id="truck93" depart="243.11" from="-215090004#0" to="215090018" departLane="best" type="truck_truck"/>
    <trip id="truck94" depart="245.73" from="-659857898#1" to="376927932#0" departLane="best" type="truck_truck"/>
    <trip id="truck95" depart="248.34" from="31017861#5" to="235957078#1" departLane="best" type="truck_truck"/>
    <trip id="truck96" depart="250.96" from="659857898#3" to="-31017880#6" departLane="best" type="truck_truck"/>
    <trip id="truck97" depart="253.57" from="-566962242#0" to="215090022#2" departLane="best" type="truck_truck"/>
    <trip id="truck98" depart="256.19" from="-151770988#4" to="31017880#0" departLane="best" type="truck_truck"/>
    <trip id="truck99" depart="258.80" from="215090070#0" to="-659857898#0" departLane="best" type="truck_truck"/>
    <trip id="truck100" depart="261.41" from="-825118129#3" to="-596071807#3" departLane="best" type="truck_truck"/>
    <trip id="truck101" depart="264.03" from="-215089917#1" to="-215090046#0" departLane="best" type="truck_truck"/>
    <trip id="truck102" depart="266.64" from="-31017861#6" to="-1160006921#1" departLane="best" type="truck_truck"/>
    <trip id="truck103" depart="269.26" from="1431976929#0" to="215089911#4" departLane="best" type="truck_truck"/>
    <trip id="truck104" depart="271.87" from="992634229#1" to="1431976931" departLane="best" type="truck_truck"/>
    <trip id="truck105" depart="274.48" from="376927932#3" to="-566962242#9" departLane="best" type="truck_truck"/>
    <trip id="truck106" depart="277.10" from="590993175" to="787858372" departLane="best" type="truck_truck"/>
    <trip id="truck107" depart="279.71" from="-215090017#1" to="703914561#0" departLane="best" type="truck_truck"/>
    <trip id="truck108" depart="282.33" from="215089976#0" to="703914561#1" departLane="best" type="truck_truck"/>
    <trip id="truck109" depart="284.94" from="31017890#2" to="646210541#2" departLane="best" type="truck_truck"/>
    <trip id="truck110" depart="287.56" from="-31017880#3" to="-596071807#2" departLane="best" type="truck_truck"/>
    <trip id="truck111" depart="290.17" from="-646210541#4" to="825118129#7" departLane="best" type="truck_truck"/>
    <trip id="truck112" depart="292.78" from="588859419#3" to="-1187096042#0" departLane="best" type="truck_truck"/>
    <trip id="truck113" depart="295.40" from="215089938" to="707832926#5" departLane="best" type="truck_truck"/>
    <trip id="truck114" depart="298.01" from="-1431976931" to="415062373" departLane="best" type="truck_truck"/>
    <trip id="truck115" depart="300.63" from="-215090046#1" to="825118129#0" departLane="best" type="truck_truck"/>
    <trip id="truck116" depart="303.24" from="1305503506" to="-215089911#5" departLane="best" type="truck_truck"/>
    <trip id="truck117" depart="305.85" from="-1305503506" to="588859419#0" departLane="best" type="truck_truck"/>
    <trip id="truck118" depart="308.47" from="-423843627#1" to="-215089904#5" departLane="best" type="truck_truck"/>
    <trip id="truck119" depart="311.08" from="749128442#2" to="215090046#6" departLane="best" type="truck_truck"/>
    <trip id="truck120" depart="313.70" from="-215090064" to="151770988#2" departLane="best" type="truck_truck"/>
    <trip id="truck121" depart="316.31" from="746615675#3" to="215089904#1" departLane="best" type="truck_truck"/>
    <trip id="truck122" depart="318.92" from="-1192068860" to="215090021" departLane="best" type="truck_truck" departSpeed="max"/>
    <trip id="truck123" depart="321.54" from="215090070#1" to="-215090004#0" departLane="best" type="truck_truck"/>
    <trip id="truck124" depart="324.15" from="215090046#4" to="151770988#0" departLane="best" type="truck_truck"/>
    <trip id="truck125" depart="326.77" from="-789770471" to="1177776606" departLane="best" type="truck_truck" departSpeed="max"/>
    <trip id="truck126" depart="329.38" from="646210542#4" to="825118129#5" departLane="best" type="truck_truck"/>
    <trip id="truck127" depart="332.00" from="1195576992#9" to="-31017880#0" departLane="best" type="truck_truck"/>
    <trip id="truck128" depart="334.61" from="646210542#5" to="-215089904#3" departLane="best" type="truck_truck"/>
    <trip id="truck129" depart="337.22" from="-1187096042#1" to="588859419#1" departLane="best" type="truck_truck" departSpeed="max"/>
    <trip id="truck130" depart="339.84" from="215089911#5" to="31017880#1" departLane="best" type="truck_truck"/>
    <trip id="truck131" depart="342.45" from="746615675#6" to="215089911#2" departLane="best" type="truck_truck"/>
    <trip id="truck132" depart="345.07" from="-215090046#6" to="566962242#2" departLane="best" type="truck_truck" departSpeed="max"/>
    <trip id="truck133" depart="347.68" from="-376927932#0" to="-235978549" departLane="best" type="truck_truck"/>
    <trip id="truck134" depart="350.29" from="566962242#4" to="659857898#1" departLane="best" type="truck_truck"/>
    <trip id="truck135" depart="352.91" from="1160006921#0" to="-1431976930#0" departLane="best" type="truck_truck"/>
    <trip id="truck136" depart="355.52" from="-31017861#0" to="-235957078#0" departLane="best" type="truck_truck"/>
    <trip id="truck137" depart="358.14" from="820174849#1" to="-646210541#4" departLane="best" type="truck_truck"/>
    <trip id="truck138" depart="360.75" from="571283261#0" to="31017880#4" departLane="best" type="truck_truck" departSpeed="max"/>
    <trip id="truck139" depart="363.37" from="571283261#4" to="566888447#4" departLane="best" type="truck_truck"/>
    <trip id="truck140" depart="365.98" from="596071807#2" to="-151770988#0" departLane="best" type="truck_truck"/>
    <trip id="truck141" depart="368.59" from="-569823304" to="215089976#2" departLane="best" type="truck_truck"/>
    <trip id="truck142" depart="371.21" from="596071807#2" to="-1160006921#0" departLane="best" type="truck_truck"/>
    <trip id="truck143" depart="373.82" from="-588859419#2" to="-215090046#5" departLane="best" type="truck_truck"/>
    <trip id="truck144" depart="376.44" from="-235957078#1" to="-746615675#0" departLane="best" type="truck_truck"/>
    <trip id="truck145" depart="379.05" from="825118129#1" to="707832926#2" departLane="best" type="truck_truck"/>
    <trip id="truck146" depart="381.66" from="-215090070#3" to="-215090064" departLane="best" type="truck_truck"/>
    <trip id="truck147" depart="384.28" from="646210541#1" to="566888447#6" departLane="best" type="truck_truck"/>
    <trip id="truck148" depart="386.89" from="-376927932#3" to="1431976928#1" departLane="best" type="truck_truck"/>
    <trip id="truck149" depart="389.51" from="566962242#0" to="749128442#6" departLane="best" type="truck_truck"/>
    <trip id="truck150" depart="392.12" from="749128442#2" to="-215090046#3" departLane="best" type="truck_truck"/>
    <trip id="truck151" depart="394.73" from="-659857898#0" to="-423843627#1" departLane="best" type="truck_truck"/>
    <trip id="truck152" depart="397.35" from="423840850#0" to="215090046#6" departLane="best" type="truck_truck"/>
    <trip id="truck153" depart="399.96" from="376927932#2" to="-215089904#6" departLane="best" type="truck_truck"/>
    <trip id="truck154" depart="402.58" from="659857898#1" to="-215089911#6" departLane="best" type="truck_truck"/>
    <trip id="truck155" depart="405.19" from="749128442#0" to="-1187096042#0" departLane="best" type="truck_truck"/>
    <trip id="truck156" depart="407.81" from="-1177915924" to="749128442#7" departLane="best" type="truck_truck" departSpeed="max"/>
    <trip id="truck157" depart="410.42" from="-215090022#1" to="215089949#1" departLane="best" type="truck_truck"/>
    <trip id="truck158" depart="413.03" from="596071807#1" to="1192595036#1" departLane="best" type="truck_truck"/>
    <trip id="truck159" depart="415.65" from="659857898#2" to="-1431976930#0" departLane="best" type="truck_truck"/>
    <trip id="truck160" depart="418.26" from="-151770988#6" to="31017880#1" departLane="best" type="truck_truck"/>
    <trip id="truck161" depart="420.88" from="-215090004#1" to="806357169#0" departLane="best" type="truck_truck"/>
    <trip id="truck162" depart="423.49" from="1190739880#1" to="1164686616" departLane="best" type="truck_truck"/>
    <trip id="truck163" depart="426.10" from="-235957078#0" to="806357169#1" departLane="best" type="truck_truck"/>
    <trip id="truck164" depart="428.72" from="-415068142" to="-215090022#1" departLane="best" type="truck_truck"/>
    <trip id="truck165" depart="431.33" from="-646210541#2" to="-825118129#1" departLane="best" type="truck_truck"/>
    <trip id="truck166" depart="433.95" from="-215089941" to="-596071807#2" departLane="best" type="truck_truck"/>
    <trip id="truck167" depart="436.56" from="-31017861#3" to="215089968" departLane="best" type="truck_truck"/>
    <trip id="truck168" depart="439.18" from="151770988#5" to="-215089904#6" departLane="best" type="truck_truck"/>
    <trip id="truck169" depart="441.79" from="-31017861#6" to="-746615675#2" departLane="best" type="truck_truck"/>
    <trip id="truck170" depart="444.40" from="-1175896817" to="-31017880#3" departLane="best" type="truck_truck" departSpeed="max"/>
    <trip id="truck171" depart="447.02" from="-31017880#2" to="361760637" departLane="best" type="truck_truck"/>
    <trip id="truck172" depart="449.63" from="-746615675#5" to="-1195576992#5" departLane="best" type="truck_truck"/>
    <trip id="truck173" depart="452.25" from="215090078#1" to="376927932#0" departLane="best" type="truck_truck"/>
    <trip id="truck174" depart="454.86" from="566962241" to="1195576992#7" departLane="best" type="truck_truck" departSpeed="max"/>
    <trip id="truck175" depart="457.47" from="215225848" to="-703914562" departLane="best" type="truck_truck"/>
    <trip id="truck176" depart="460.09" from="31017861#6" to="1187096042#0" departLane="best" type="truck_truck"/>
    <trip id="truck177" depart="462.70" from="566888433#0" to="746615675#4" departLane="best" type="truck_truck"/>
    <trip id="truck178" depart="465.32" from="215090046#0" to="151770988#2" departLane="best" type="truck_truck"/>
    <trip id="truck179" depart="467.93" from="-376927932#1" to="215090070#0" departLane="best" type="truck_truck"/>
    <trip id="truck180" depart="470.54" from="-415062373" to="-1431976930#0" departLane="best" type="truck_truck" departSpeed="max"/>
    <trip id="truck181" depart="473.16" from="-215089941" to="646210541#4" departLane="best" type="truck_truck"/>
    <trip id="truck182" depart="475.77" from="-1187096043" to="596071807#0" departLane="best" type="truck_truck" departSpeed="max"/>
    <trip id="truck183" depart="478.39" from="423840850#0" to="703914562" departLane="best" type="truck_truck"/>
    <trip id="truck184" depart="481.00" from="215089911#1" to="-31017861#3" departLane="best" type="truck_truck"/>
    <trip id="truck185" depart="483.62" from="-415046264" to="215090022#2" departLane="best" type="truck_truck"/>
    <trip id="truck186" depart="486.23" from="1160006921#1" to="825118129#2" departLane="best" type="truck_truck"/>
    <trip id="truck187" depart="488.84" from="-749128442#8" to="31017861#5" departLane="best" type="truck_truck"/>
    <trip id="truck188" depart="491.46" from="151770988#6" to="215090022#2" departLane="best" type="truck_truck"/>
    <trip id="truck189" depart="494.07" from="-31017861#2" to="-215089911#6" departLane="best" type="truck_truck"/>
    <trip id="truck190" depart="496.69" from="571283261#1" to="-566962242#2" departLane="best" type="truck_truck"/>
    <trip id="truck191" depart="499.30" from="-215090046#5" to="588859419#4" departLane="best" type="truck_truck"/>
    <trip id="truck192" depart="501.91" from="646210541#1" to="-235957078#2" departLane="best" type="truck_truck"/>
    <trip id="truck193" depart="504.53" from="646210542#6" to="-825118129#7" departLane="best" type="truck_truck"/>
    <trip id="truck194" depart="507.14" from="-215089911#2" to="-151770988#4" departLane="best" type="truck_truck"/>
    <trip id="truck195" depart="509.76" from="-215089916#3" to="646210541#1" departLane="best" type="truck_truck"/>
    <trip id="truck196" depart="512.37" from="31017880#6" to="646210541#2" departLane="best" type="truck_truck"/>
    <trip id="truck197" depart="514.99" from="215089911#4" to="-646210541#1" departLane="best" type="truck_truck"/>
    <trip id="truck198" depart="517.60" from="1195576992#4" to="-746615675#5" departLane="best" type="truck_truck"/>
    <trip id="truck199" depart="520.21" from="-215090078#0" to="1217688135#2" departLane="best" type="truck_truck"/>
    <trip id="truck200" depart="522.83" from="215089911#5" to="-1192071065" departLane="best" type="truck_truck"/>
    <trip id="truck201" depart="525.44" from="787858369" to="659857898#0" departLane="best" type="truck_truck"/>
    <trip id="truck202" depart="528.06" from="-31017880#0" to="-1195576992#9" departLane="best" type="truck_truck"/>
    <trip id="truck203" depart="530.67" from="1393642036" to="-423840850#1" departLane="best" type="truck_truck" departSpeed="max"/>
    <trip id="truck204" depart="533.28" from="-215089904#1" to="-376927932#3" departLane="best" type="truck_truck"/>
    <trip id="truck205" depart="535.90" from="-827899848" to="215090017#2" departLane="best" type="truck_truck" departSpeed="max"/>
    <trip id="truck206" depart="538.51" from="215090022#0" to="215090017#1" departLane="best" type="truck_truck"/>
    <trip id="truck207" depart="541.13" from="215089943" to="707832926#0" departLane="best" type="truck_truck"/>
    <trip id="truck208" depart="543.74" from="215090045#0" to="-596071807#3" departLane="best" type="truck_truck"/>
    <trip id="truck209" depart="546.35" from="566888436#0" to="-596071807#3" departLane="best" type="truck_truck"/>
    <trip id="truck210" depart="548.97" from="31017880#6" to="703914562" departLane="best" type="truck_truck"/>
    <trip id="truck211" depart="551.58" from="215089904#2" to="596071807#2" departLane="best" type="truck_truck"/>
    <trip id="truck212" depart="554.20" from="-825118129#3" to="1160006921#0" departLane="best" type="truck_truck"/>
    <trip id="truck213" depart="556.81" from="-215089911#6" to="-31017861#0" departLane="best" type="truck_truck"/>
    <trip id="truck214" depart="559.43" from="-749128442#1" to="-746615675#3" departLane="best" type="truck_truck"/>
    <trip id="truck215" depart="562.04" from="-1187096043" to="749128442#6" departLane="best" type="truck_truck" departSpeed="max"/>
    <trip id="truck216" depart="564.65" from="-215090021" to="-376927932#3" departLane="best" type="truck_truck"/>
    <trip id="truck217" depart="567.27" from="566962242#5" to="-596071807#1" departLane="best" type="truck_truck"/>
    <trip id="truck218" depart="569.88" from="1190739880#0" to="707832926#6" departLane="best" type="truck_truck"/>
    <trip id="truck219" depart="572.50" from="-215089976#2" to="215090022#2" departLane="best" type="truck_truck"/>
    <trip id="truck220" depart="575.11" from="31017896#1" to="215089916#4" departLane="best" type="truck_truck"/>
    <trip id="truck221" depart="577.72" from="-31017861#4" to="1206815946" departLane="best" type="truck_truck"/>
    <trip id="truck222" depart="580.34" from="-376927932#2" to="1431976930#1" departLane="best" type="truck_truck"/>
    <trip id="truck223" depart="582.95" from="-787858368#1" to="-1195576992#1" departLane="best" type="truck_truck"/>
    <trip id="truck224" depart="585.57" from="215090004#1" to="1217688135#0" departLane="best" type="truck_truck"/>
    <trip id="truck225" depart="588.18" from="1431976928#0" to="31017861#5" departLane="best" type="truck_truck"/>
    <trip id="truck226" depart="590.80" from="646210541#3" to="-215090070#1" departLane="best" type="truck_truck"/>
    <trip id="truck227" depart="593.41" from="-749128442#7" to="646210542#5" departLane="best" type="truck_truck"/>
    <trip id="truck228" depart="596.02" from="-215089916#1" to="566888433#0" departLane="best" type="truck_truck"/>
    <trip id="truck229" depart="598.64" from="215089911#0" to="-235957078#0" departLane="best" type="truck_truck"/>
    <trip id="truck230" depart="601.25" from="825118129#1" to="746615675#2" departLane="best" type="truck_truck"/>
    <trip id="truck231" depart="603.87" from="820174849#0" to="-596071807#0" departLane="best" type="truck_truck"/>
    <trip id="truck232" depart="606.48" from="1305503506" to="376927932#1" departLane="best" type="truck_truck"/>
    <trip id="truck233" depart="609.09" from="820174850#1" to="415068142" departLane="best" type="truck_truck"/>
    <trip id="truck234" depart="611.71" from="-1431976929#1" to="-215089911#4" departLane="best" type="truck_truck" departSpeed="max"/>
    <trip id="truck235" depart="614.32" from="1195576992#2" to="215090022#2" departLane="best" type="truck_truck"/>
    <trip id="truck236" depart="616.94" from="376927932#4" to="820174848#2" departLane="best" type="truck_truck"/>
    <trip id="truck237" depart="619.55" from="-215090004#0" to="215089943" departLane="best" type="truck_truck"/>
    <trip id="truck238" depart="622.16" from="-1187096042#0" to="659857898#1" departLane="best" type="truck_truck"/>
    <trip id="truck239" depart="624.78" from="-215090070#1" to="703914561#0" departLane="best" type="truck_truck"/>
    <trip id="truck240" depart="627.39" from="-646210541#1" to="215089976#0" departLane="best" type="truck_truck"/>
    <trip id="truck241" depart="630.01" from="-215089911#4" to="-215090070#3" departLane="best" type="truck_truck"/>
    <trip id="truck242" depart="632.62" from="215090004#1" to="707832926#8" departLane="best" type="truck_truck"/>
    <trip id="truck243" depart="635.24" from="-1195576992#4" to="1217688135#0" departLane="best" type="truck_truck"/>
    <trip id="truck244" depart="637.85" from="-1190742076#1" to="-646210541#4" departLane="best" type="truck_truck" departSpeed="max"/>
    <trip id="truck245" depart="640.46" from="646210542#3" to="376927932#1" departLane="best" type="truck_truck"/>