<?xml version="1.0" encoding="UTF-8"?>

<!-- generated on 2025-12-21 00:20:33.818507 by Eclipse SUMO osmWebWizard.py UNKNOWN
<configuration>
    <net-file value="/home/yeet/Sumo/2025-12-21-00-20-20/osm.net.xml.gz"/>
    <output-trip-file value="/home/yeet/Sumo/2025-12-21-00-20-20/osm.passenger.trips.xml"/>
    <route-file value="/home/yeet/Sumo/2025-12-21-00-20-20/osm.passenger.rou.xml"/>
    <prefix value="veh"/>
    <trip-attributes value="departLane=&quot;best&quot;"/>
    <fringe-start-attributes value="departSpeed=&quot;max&quot;"/>
    <vehicle-class value="passenger"/>
    <lanes value="True"/>
    <fringe-factor value="1"/>
    <allow-fringe.min-length value="1000.0"/>
    <edge-permission value="passenger"/>
    <via-edge-types value="highway.motorway,highway.motorway_link,highway.trunk_link,highway.primary_link,highway.secondary_link,highway.tertiary_link"/>
    <seed value="44"/>
    <min-distance value="300.0"/>
    <min-distance.fringe value="10.0"/>
    <remove-loops value="True"/>
    <insertion-density value="100.0"/>
</configuration>
-->

<routes xmlns:xsi="http://www.w3.org/2001/XMLSchema-instance" xsi:noNamespaceSchemaLocation="http://sumo.dlr.de/xsd/routes_file.xsd">
    <vType id="veh_passenger" vClass="passenger"/>
    <trip id="veh0" depart="0.00" from="1164686618#0" to="215090004#1" departLane="best" type="veh_passenger" departSpeed="max"/>
    <trip id="veh1" depart="0.52" from="646210542#3" to="-215090078#0" departLane="best" type="veh_passenger"/>
    <trip id="veh2" depart="1.05" from="-31017861#4" to="-1195576992#0" departLane="best" type="veh_passenger"/>
    <trip id="veh3" depart="1.57" from="-215089911#0" to="-1160006921#0" departLane="best" type="veh_passenger"/>
    <trip id="veh4" depart="2.09" from="825118129#3" to="415062368" departLane="best" type="veh_passenger"/>
    <trip id="veh5" depart="2.61" from="-806357169#1" to="1192595036#1" departLane="best" type="veh_passenger" departSpeed="max"/>
    <trip id="veh6" depart="3.14" from="361760636" to="-787858368#1" departLane="best" type="veh_passenger"/>
    <trip id="veh7" depart="3.66" from="-1431976928#1" to="646210542#3" departLane="best" type="veh_passenger"/>
    <trip id="veh8" depart="4.18" from="31017861#0" to="-215089916#2" departLane="best" type="veh_passenger"/>
    <trip id="veh9" depart="4.71" from="-1305503506" to="-215089908#1" departLane="best" type="veh_passenger"/>
    <trip id="veh10" depart="5.23" from="749128442#8" to="-215089911#6" departLane="best" type="veh_passenger"/>
    <trip id="veh11" depart="5.75" from="31017861#5" to="820174848#2" departLane="best" type="veh_passenger"/>
    <trip id="veh12" depart="6.27" from="-1190739880#1" to="1187096042#0" departLane="best" type="veh_passenger"/>
    <trip id="veh13" depart="6.80" from="1431978404#0" to="708292171" departLane="best" type="veh_passenger"/>
    <trip id="veh14" depart="7.32" from="-215090046#4" to="-588859419#1" departLane="best" type="veh_passenger"/>
    <trip id="veh15" depart="7.84" from="-376927932#1" to="-1305503506" departLane="best" type="veh_passenger"/>
    <trip id="veh16" depart="8.37" from="31017896#0" to="596071807#3" departLane="best" type="veh_passenger"/>
    <trip id="veh17" depart="8.89" from="1195576992#11" to="-1195576992#4" departLane="best" type="veh_passenger"/>
    <trip id="veh18" depart="9.41" from="596071807#0" to="31017890#0" departLane="best" type="veh_passenger"/>
    <trip id="veh19" depart="9.93" from="215090046#5" to="215090004#1" departLane="best" type="veh_passenger"/>
    <trip id="veh20" depart="10.46" from="-31017880#0" to="1431978404#0" departLane="best" type="veh_passenger"/>
    <trip id="veh21" depart="10.98" from="571283261#0" to="376927932#0" departLane="best" type="veh_passenger" departSpeed="max"/>
    <trip id="veh22" depart="11.50" from="-749128442#0" to="646210541#2" departLane="best" type="veh_passenger"/>
    <trip id="veh23" depart="12.03" from="646210541#2" to="-1195576992#7" departLane="best" type="veh_passenger"/>
    <trip id="veh24" depart="12.55" from="-215089976#0" to="-376927932#3" departLane="best" type="veh_passenger"/>
    <trip id="veh25" depart="13.07" from="-1160006921#2" to="566888447#6" departLane="best" type="veh_passenger"/>
    <trip id="veh26" depart="13.59" from="215225848" to="-1431976930#1" departLane="best" type="veh_passenger"/>
    <trip id="veh27" depart="14.12" from="1195576992#1" to="-1206809261#0" departLane="best" type="veh_passenger"/>
    <trip id="veh28" depart="14.64" from="31017861#4" to="-215089941" departLane="best" type="veh_passenger"/>
    <trip id="veh29" depart="15.16" from="-215090045#0" to="31017890#2" departLane="best" type="veh_passenger"/>
    <trip id="veh30" depart="15.68" from="596071807#3" to="31017880#3" departLane="best" type="veh_passenger"/>
    <trip id="veh31" depart="16.21" from="-588859419#1" to="31017890#3" departLane="best" type="veh_passenger"/>
    <trip id="veh32" depart="16.73" from="-566962242#0" to="-1121976098" departLane="best" type="veh_passenger"/>
    <trip id="veh33" depart="17.25" from="-566962242#0" to="376927932#3" departLane="best" type="veh_passenger"/>
    <trip id="veh34" depart="17.78" from="31017861#5" to="-31017861#2" departLane="best" type="veh_passenger"/>
    <trip id="veh35" depart="18.30" from="646210541#3" to="646210542#1" departLane="best" type="veh_passenger"/>
    <trip id="veh36" depart="18.82" from="-415062374" to="-1431978404#1" departLane="best" type="veh_passenger" departSpeed="max"/>
    <trip id="veh37" depart="19.34" from="215089904#5" to="646210542#6" departLane="best" type="veh_passenger"/>
    <trip id="veh38" depart="19.87" from="151770986" to="-659857898#1" departLane="best" type="veh_passenger"/>
    <trip id="veh39" depart="20.39" from="-588859419#4" to="1192067930" departLane="best" type="veh_passenger"/>
    <trip id="veh40" depart="20.91" from="215089943" to="749128442#4" departLane="best" type="veh_passenger"/>
    <trip id="veh41" depart="21.44" from="-1431976928#0" to="-566962242#8" departLane="best" type="veh_passenger"/>
    <trip id="veh42" depart="21.96" from="-1431976928#1" to="1393642035" departLane="best" type="veh_passenger"/>
    <trip id="veh43" depart="22.48" from="31017890#1" to="707832926#9" departLane="best" type="veh_passenger"/>
    <trip id="veh44" depart="23.00" from="-1431978404#0" to="707832926#6" departLane="best" type="veh_passenger"/>
    <trip id="veh45" depart="23.53" from="566962241" to="-646210541#3" departLane="best" type="veh_passenger" departSpeed="max"/>
    <trip id="veh46" depart="24.05" from="215089916#2" to="646210542#0" departLane="best" type="veh_passenger"/>
    <trip id="veh47" depart="24.57" from="-31017880#5" to="423840850#0" departLane="best" type="veh_passenger"/>
    <trip id="veh48" depart="25.10" from="215090004#1" to="-151770988#3" departLane="best" type="veh_passenger"/>
    <trip id="veh49" depart="25.62" from="-423843627#1" to="1195576992#2" departLane="best" type="veh_passenger"/>
    <trip id="veh50" depart="26.14" from="-376927932#2" to="-423840850#0" departLane="best" type="veh_passenger"/>
    <trip id="veh51" depart="26.66" from="215090070#2" to="215089945" departLane="best" type="veh_passenger"/>
    <trip id="veh52" depart="27.19" from="-659857898#1" to="-787858368#1" departLane="best" type="veh_passenger"/>
    <trip id="veh53" depart="27.71" from="151770988#3" to="707832926#9" departLane="best" type="veh_passenger"/>
    <trip id="veh54" depart="28.23" from="-1431976930#1" to="707832926#9" departLane="best" type="veh_passenger"/>
    <trip id="veh55" depart="28.76" from="746615675#3" to="376927932#0" departLane="best" type="veh_passenger"/>
    <trip id="veh56" depart="29.28" from="571283261#2" to="1178096191" departLane="best" type="veh_passenger"/>
    <trip id="veh57" depart="29.80" from="31017896#2" to="1431976929#1" departLane="best" type="veh_passenger"/>
    <trip id="veh58" depart="30.32" from="-31017861#1" to="376927932#4" departLane="best" type="veh_passenger"/>
    <trip id="veh59" depart="30.85" from="566888436#1" to="-1121976097#0" departLane="best" type="veh_passenger"/>
    <trip id="veh60" depart="31.37" from="-646210541#1" to="215089976#0" departLane="best" type="veh_passenger"/>
    <trip id="veh61" depart="31.89" from="-235957078#0" to="-215089949#1" departLane="best" type="veh_passenger"/>
    <trip id="veh62" depart="32.42" from="-215090046#4" to="-1190739880#0" departLane="best" type="veh_passenger"/>
    <trip id="veh63" depart="32.94" from="-215089911#2" to="1190739880#0" departLane="best" type="veh_passenger"/>
    <trip id="veh64" depart="33.46" from="151770988#6" to="31017890#2" departLane="best" type="veh_passenger"/>
    <trip id="veh65" depart="33.98" from="-596071807#3" to="-215089949#0" departLane="best" type="veh_passenger"/>
    <trip id="veh66" depart="34.51" from="31017896#0" to="376927932#3" departLane="best" type="veh_passenger"/>
    <trip id="veh67" depart="35.03" from="-659857898#2" to="235957078#1" departLane="best" type="veh_passenger"/>
    <trip id="veh68" depart="35.55" from="-659857898#0" to="31017890#4" departLane="best" type="veh_passenger"/>
    <trip id="veh69" depart="36.08" from="571283261#9" to="-1190739880#0" departLane="best" type="veh_passenger"/>
    <trip id="veh70" depart="36.60" from="571283261#1" to="-215089917#1" departLane="best" type="veh_passenger"/>
    <trip id="veh71" depart="37.12" from="-1164686614" to="-151770988#4" departLane="best" type="veh_passenger" departSpeed="max"/>
    <trip id="veh72" depart="37.64" from="215090005" to="646210542#5" departLane="best" type="veh_passenger" departSpeed="max"/>
    <trip id="veh73" depart="38.17" from="708292171" to="-215090046#1" departLane="best" type="veh_passenger"/>
    <trip id="veh74" depart="38.69" from="659857898#0" to="646210542#0" departLane="best" type="veh_passenger"/>
    <trip id="veh75" depart="39.21" from="566962242#9" to="376927932#3" departLane="best" type="veh_passenger"/>
    <trip id="veh76" depart="39.73" from="646210542#5" to="215089911#0" departLane="best" type="veh_passenger"/>
    <trip id="veh77" depart="40.26" from="-806357169#1" to="1431978404#1" departLane="best" type="veh_passenger" departSpeed="max"/>
    <trip id="veh78" depart="40.78" from="571283261#2" to="-646210541#3" departLane="best" type="veh_passenger"/>
    <trip id="veh79" depart="41.30" from="-215090064" to="646210542#2" departLane="best" type="veh_passenger"/>
    <trip id="veh80" depart="41.83" from="-215090021" to="-1195576992#6" departLane="best" type="veh_passenger"/>
    <trip id="veh81" depart="42.35" from="-31017861#3" to="1217688135#0" departLane="best" type="veh_passenger"/>
    <trip id="veh82" depart="42.87" from="-1190739880#0" to="-596071807#3" departLane="best" type="veh_passenger"/>
    <trip id="veh83" depart="43.39" from="746615675#6" to="1305503506" departLane="best" type="veh_passenger"/>
    <trip id="veh84" depart="43.92" from="-590993175" to="-215090070#3" departLane="best" type="veh_passenger"/>
    <trip id="veh85" depart="44.44" from="31017880#4" to="31017896#1" departLane="best" type="veh_passenger"/>
    <trip id="veh86" depart="44.96" from="646210542#4" to="-825118129#2" departLane="best" type="veh_passenger"/>
    <trip id="veh87" depart="45.49" from="151770988#3" to="-1121976097#0" departLane="best" type="veh_passenger"/>
    <trip id="veh88" depart="46.01" from="215090064" to="-703914561#0" departLane="best" type="veh_passenger"/>
    <trip id="veh89" depart="46.53" from="746615675#6" to="-215090070#1" departLane="best" type="veh_passenger"/>
    <trip id="veh90" depart="47.05" from="571283261#1" to="151770988#5" departLane="best" type="veh_passenger"/>
    <trip id="veh91" depart="47.58" from="746615675#6" to="-151770988#3" departLane="best" type="veh_passenger"/>
    <trip id="veh92" depart="48.10" from="-825118129#2" to="-215090046#4" departLane="best" type="veh_passenger"/>
    <trip id="veh93" depart="48.62" from="-415062373" to="707832926#1" departLane="best" type="veh_passenger" departSpeed="max"/>
    <trip id="veh94" depart="49.15" from="215089911#6" to="1154579502" departLane="best" type="veh_passenger"/>
    <trip id="veh95" depart="49.67" from="787858368#1" to="-1431976928#1" departLane="best" type="veh_passenger"/>
    <trip id="veh96" depart="50.19" from="-1175896817" to="566962242#6" departLane="best" type="veh_passenger" departSpeed="max"/>
    <trip id="veh97" depart="50.71" from="215090004#0" to="646210542#1" departLane="best" type="veh_passenger"/>
    <trip id="veh98" depart="51.24" from="151770988#3" to="749128442#5" departLane="best" type="veh_passenger"/>
    <trip id="veh99" depart="51.76" from="-703914561#1" to="-415068142" departLane="best" type="veh_passenger" departSpeed="max"/>
    <trip id="veh100" depart="52.28" from="646210542#6" to="215089968" departLane="best" type="veh_passenger"/>
    <trip id="veh101" depart="52.81" from="-1164686614" to="566888447#1" departLane="best" type="veh_passenger" departSpeed="max"/>
    <trip id="veh102" depart="53.33" from="-825118129#5" to="746615675#2" departLane="best" type="veh_passenger"/>
    <trip id="veh103" depart="53.85" from="215090046#5" to="361760636" departLane="best" type="veh_passenger"/>
    <trip id="veh104" depart="54.37" from="708292171" to="825118129#0" departLane="best" type="veh_passenger"/>
    <trip id="veh105" depart="54.90" from="215089911#3" to="708292171" departLane="best" type="veh_passenger"/>
    <trip id="veh106" depart="55.42" from="-215090078#1" to="-569823304" departLane="best" type="veh_passenger"/>
    <trip id="veh107" depart="55.94" from="571283261#8" to="215089976#0" departLane="best" type="veh_passenger"/>
    <trip id="veh108" depart="56.47" from="361760638" to="-1192595036#1" departLane="best" type="veh_passenger" departSpeed="max"/>
    <trip id="veh109" depart="56.99" from="-215090070#0" to="-1187096042#0" departLane="best" type="veh_passenger"/>
    <trip id="veh110" depart="57.51" from="361760638" to="1190742077" departLane="best" type="veh_passenger" departSpeed="max"/>
    <trip id="veh111" depart="58.03" from="-1160006921#2" to="-566962242#6" departLane="best" type="veh_passenger"/>
    <trip id="veh112" depart="58.56" from="1192595036#0" to="1195576992#9" departLane="best" type="veh_passenger" departSpeed="max"/>
    <trip id="veh113" depart="59.08" from="-703914561#0" to="-1195576992#4" departLane="best" type="veh_passenger"/>
    <trip id="veh114" depart="59.60" from="-703816434" to="31017890#1" departLane="best" type="veh_passenger" departSpeed="max"/>
    <trip id="veh115" depart="60.13" from="215089917#0" to="215090078#1" departLane="best" type="veh_passenger"/>
    <trip id="veh116" depart="60.65" from="-215089976#2" to="-1195576992#6" departLane="best" type="veh_passenger"/>
    <trip id="veh117" depart="61.17" from="566888447#5" to="566888433#1" departLane="best" type="veh_passenger"/>
    <trip id="veh118" depart="61.69" from="31017890#2" to="789770470" departLane="best" type="veh_passenger"/>
    <trip id="veh119" depart="62.22" from="-596071807#2" to="566888447#1" departLane="best" type="veh_passenger"/>
    <trip id="veh120" depart="62.74" from="-566962242#9" to="31017861#0" departLane="best" type="veh_passenger"/>
    <trip id="veh121" depart="63.26" from="235978549" to="825118129#2" departLane="best" type="veh_passenger"/>
    <trip id="veh122" depart="63.78" from="-703816434" to="-646210541#1" departLane="best" type="veh_passenger" departSpeed="max"/>
    <trip id="veh123" depart="64.31" from="-1177915924" to="-215089904#3" departLane="best" type="veh_passenger" departSpeed="max"/>
    <trip id="veh124" depart="64.83" from="820174849#1" to="215090022#2" departLane="best" type="veh_passenger"/>
    <trip id="veh125" depart="65.35" from="646210541#3" to="423843627#1" departLane="best" type="veh_passenger"/>
    <trip id="veh126" depart="65.88" from="646210542#4" to="215089904#2" departLane="best" type="veh_passenger"/>
    <trip id="veh127" depart="66.40" from="-215089938" to="707832926#9" departLane="best" type="veh_passenger"/>
    <trip id="veh128" depart="66.92" from="-590993175" to="746615675#1" departLane="best" type="veh_passenger"/>
    <trip id="veh129" depart="67.44" from="215089911#0" to="1164686616" departLane="best" type="veh_passenger"/>
    <trip id="veh130" depart="67.97" from="-1431976929#1" to="-1195576992#9" departLane="best" type="veh_passenger" departSpeed="max"/>
    <trip id="veh131" depart="68.49" from="-1431978404#1" to="707832926#6" departLane="best" type="veh_passenger"/>
    <trip id="veh132" depart="69.01" from="-749128442#2" to="787858368#1" departLane="best" type="veh_passenger"/>
    <trip id="veh133" depart="69.54" from="-1160006921#1" to="-215090046#1" departLane="best" type="veh_passenger"/>
    <trip id="veh134" depart="70.06" from="151770986" to="31017890#3" departLane="best" type="veh_passenger"/>
    <trip id="veh135" depart="70.58" from="215089943" to="-1078958802#1" departLane="best" type="veh_passenger"/>
    <trip id="veh136" depart="71.10" from="-415062368" to="-235957078#2" departLane="best" type="veh_passenger" departSpeed="max"/>
    <trip id="veh137" depart="71.63" from="31017880#6" to="1431978404#3" departLane="best" type="veh_passenger"/>
    <trip id="veh138" depart="72.15" from="825118129#2" to="787858368#0" departLane="best" type="veh_passenger"/>
    <trip id="veh139" depart="72.67" from="-596071807#2" to="-1195576992#10" departLane="best" type="veh_passenger"/>
    <trip id="veh140" depart="73.20" from="-215090022#1" to="1217688135#2" departLane="best" type="veh_passenger"/>
    <trip id="veh141" depart="73.72" from="1190740105" to="1217688135#2" departLane="best" type="veh_passenger" departSpeed="max"/>
    <trip id="veh142" depart="74.24" from="-1431978404#1" to="-746615675#2" departLane="best" type="veh_passenger"/>
    <trip id="veh143" depart="74.76" from="1164686618#0" to="566888447#6" departLane="best" type="veh_passenger" departSpeed="max"/>
    <trip id="veh144" depart="75.29" from="-825118129#0" to="569823304" departLane="best" type="veh_passenger"/>
    <trip id="veh145" depart="75.81" from="31017896#1" to="-31017861#1" departLane="best" type="veh_passenger"/>
    <trip id="veh146" depart="76.33" from="376927932#3" to="1164686616" departLane="best" type="veh_passenger"/>
    <trip id="veh147" depart="76.86" from="596071807#1" to="-1192071065" departLane="best" type="veh_passenger"/>
    <trip id="veh148" depart="77.38" from="-646210541#2" to="215089917#0" departLane="best" type="veh_passenger"/>
    <trip id="veh149" depart="77.90" from="-588859419#1" to="1187096043" departLane="best" type="veh_passenger"/>
    <trip id="veh150" depart="78.42" from="215090022#2" to="-566962242#0" departLane="best" type="veh_passenger"/>
    <trip id="veh151" depart="78.95" from="646210542#2" to="-659857898#1" departLane="best" type="veh_passenger"/>
    <trip id="veh152" depart="79.47" from="361760636" to="787945997" departLane="best" type="veh_passenger"/>
    <trip id="veh153" depart="79.99" from="-151770988#6" to="659857902" departLane="best" type="veh_passenger"/>
    <trip id="veh154" depart="80.52" from="-215090022#0" to="1431976931" departLane="best" type="veh_passenger"/>
    <trip id="veh155" depart="81.04" from="-215089911#0" to="746615675#3" departLane="best" type="veh_passenger"/>
    <trip id="veh156" depart="81.56" from="-646210541#1" to="215089916#4" departLane="best" type="veh_passenger"/>
    <trip id="veh157" depart="82.08" from="806357169#0" to="-215090021" departLane="best" type="veh_passenger"/>
    <trip id="veh158" depart="82.61" from="-1431976929#1" to="415062368" departLane="best" type="veh_passenger" departSpeed="max"/>
    <trip id="veh159" depart="83.13" from="-1192068860" to="-215089945" departLane="best" type="veh_passenger" departSpeed="max"/>
    <trip id="veh160" depart="83.65" from="-376927932#4" to="-1160006921#1" departLane="best" type="veh_passenger"/>
    <trip id="veh161" depart="84.18" from="-746615675#4" to="-1431976930#0" departLane="best" type="veh_passenger"/>
    <trip id="veh162" depart="84.70" from="708292171" to="215089916#2" departLane="best" type="veh_passenger"/>
    <trip id="veh163" depart="85.22" from="-1187096043" to="566888447#5" departLane="best" type="veh_passenger" departSpeed="max"/>
    <trip id="veh164" depart="85.74" from="-31017880#2" to="703914561#0" departLane="best" type="veh_passenger"/>
    <trip id="veh165" depart="86.27" from="-1190739880#1" to="-215089938" departLane="best" type="veh_passenger"/>
    <trip id="veh166" depart="86.79" from="-787945997" to="646210541#4" departLane="best" type="veh_passenger"/>
    <trip id="veh167" depart="87.31" from="-215090078#0" to="1164686616" departLane="best" type="veh_passenger"/>
    <trip id="veh168" depart="87.84" from="646210542#1" to="596071807#1" departLane="best" type="veh_passenger"/>
    <trip id="veh169" depart="88.36" from="746615675#5" to="-215089904#0" departLane="best" type="veh_passenger"/>
    <trip id="veh170" depart="88.88" from="-1190741184" to="1192067930" departLane="best" type="veh_passenger" departSpeed="max"/>
    <trip id="veh171" depart="89.40" from="646210541#4" to="376927932#3" departLane="best" type="veh_passenger"/>
    <trip id="veh172" depart="89.93" from="1164686618#0" to="376927932#0" departLane="best" type="veh_passenger" departSpeed="max"/>
    <trip id="veh173" depart="90.45" from="1195576992#6" to="646210542#1" departLane="best" type="veh_passenger"/>
    <trip id="veh174" depart="90.97" from="-566962242#9" to="566888447#6" departLane="best" type="veh_passenger"/>
    <trip id="veh175" depart="91.49" from="-215089949#1" to="215225848" departLane="best" type="veh_passenger"/>
    <trip id="veh176" depart="92.02" from="-646210541#2" to="-825118129#1" departLane="best" type="veh_passenger"/>
    <trip id="veh177" depart="92.54" from="-423840850#1" to="-1195576992#1" departLane="best" type="veh_passenger"/>
    <trip id="veh178" depart="93.06" from="-151770988#3" to="31017896#2" departLane="best" type="veh_passenger"/>
    <trip id="veh179" depart="93.59" from="31017890#3" to="31017896#0" departLane="best" type="veh_passenger"/>
    <trip id="veh180" depart="94.11" from="1195576992#1" to="215225848" departLane="best" type="veh_passenger"/>
    <trip id="veh181" depart="94.63" from="571283261#0" to="825118129#0" departLane="best" type="veh_passenger" departSpeed="max"/>
    <trip id="veh182" depart="95.15" from="31017890#4" to="-415068142" departLane="best" type="veh_passenger"/>
    <trip id="veh183" depart="95.68" from="571283261#8" to="215090045#0" departLane="best" type="veh_passenger"/>
    <trip id="veh184" depart="96.20" from="-215090078#1" to="-151770988#2" departLane="best" type="veh_passenger"/>
    <trip id="veh185" depart="96.72" from="566962242#5" to="31017896#1" departLane="best" type="veh_passenger"/>
    <trip id="veh186" depart="97.25" from="-1164686614" to="-1195576992#9" departLane="best" type="veh_passenger" departSpeed="max"/>
    <trip id="veh187" depart="97.77" from="1190740105" to="31017890#4" departLane="best" type="veh_passenger" departSpeed="max"/>
    <trip id="veh188" depart="98.29" from="-215089911#3" to="415062368" departLane="best" type="veh_passenger"/>
    <trip id="veh189" depart="98.81" from="-746615675#5" to="31017890#3" departLane="best" type="veh_passenger"/>
    <trip id="veh190" depart="99.34" from="-566962242#0" to="-423843627#0" departLane="best" type="veh_passenger"/>
    <trip id="veh191" depart="99.86" from="-215089943" to="376927932#2" departLane="best" type="veh_passenger"/>
    <trip id="veh192" depart="100.38" from="31017861#3" to="-151770988#0" departLane="best" type="veh_passenger"/>
    <trip id="veh193" depart="100.91" from="-215089904#6" to="646210542#2" departLane="best" type="veh_passenger"/>
    <trip id="veh194" depart="101.43" from="-415062373" to="746615675#3" departLane="best" type="veh_passenger" departSpeed="max"/>
    <trip id="veh195" depart="101.95" from="820174849#1" to="596071807#0" departLane="best" type="veh_passenger"/>
    <trip id="veh196" depart="102.47" from="-215089917#0" to="-215089911#4" departLane="best" type="veh_passenger"/>
    <trip id="veh197" depart="103.00" from="590993175" to="1195576992#5" departLane="best" type="veh_passenger"/>
    <trip id="veh198" depart="103.52" from="-1190739880#0" to="-215089911#4" departLane="best" type="veh_passenger"/>
    <trip id="veh199" depart="104.04" from="-1190739881" to="566888433#1" departLane="best" type="veh_passenger" departSpeed="max"/>
    <trip id="veh200" depart="104.57" from="-1195576992#4" to="-659857898#3" departLane="best" type="veh_passenger"/>
    <trip id="veh201" depart="105.09" from="361760638" to="566888447#5" departLane="best" type="veh_passenger" departSpeed="max"/>
    <trip id="veh202" depart="105.61" from="569823304" to="-423843627#1" departLane="best" type="veh_passenger"/>
    <trip id="veh203" depart="106.13" from="571283261#4" to="566888447#3" departLane="best" type="veh_passenger"/>
    <trip id="veh204" depart="106.66" from="566888436#1" to="1195576992#4" departLane="best" type="veh_passenger"/>
    <trip id="veh205" depart="107.18" from="423843627#1" to="707832926#9" departLane="best" type="veh_passenger"/>
    <trip id="veh206" depart="107.70" from="31017861#0" to="-215090018" departLane="best" type="veh_passenger"/>
    <trip id="veh207" depart="108.23" from="-789770470" to="820174848#2" departLane="best" type="veh_passenger" departSpeed="max"/>
    <trip id="veh208" depart="108.75" from="566888436#1" to="1217688135#2" departLane="best" type="veh_passenger"/>
    <trip id="veh209" depart="109.27" from="215090022#0" to="1195576992#5" departLane="best" type="veh_passenger"/>
    <trip id="veh210" depart="109.79" from="703914561#0" to="31017880#2" departLane="best" type="veh_passenger"/>
    <trip id="veh211" depart="110.32" from="-787858368#0" to="749128442#0" departLane="best" type="veh_passenger"/>
    <trip id="veh212" depart="110.84" from="571283261#9" to="1195576992#11" departLane="best" type="veh_passenger"/>
    <trip id="veh213" depart="111.36" from="787858368#0" to="-1431976930#0" departLane="best" type="veh_passenger"/>
    <trip id="veh214" depart="111.89" from="646210542#4" to="1431976930#1" departLane="best" type="veh_passenger"/>
    <trip id="veh215" depart="112.41" from="151770986" to="703884520#1" departLane="best" type="veh_passenger"/>
    <trip id="veh216" depart="112.93" from="1190740105" to="1217688135#2" departLane="best" type="veh_passenger" departSpeed="max"/>
    <trip id="veh217" depart="113.45" from="-31017880#2" to="376927932#0" departLane="best" type="veh_passenger"/>
    <trip id="veh218" depart="113.98" from="423843627#1" to="31017896#2" departLane="best" type="veh_passenger"/>
    <trip id="veh219" depart="114.50" from="-215089976#2" to="659857898#3" departLane="best" type="veh_passenger"/>
    <trip id="veh220" depart="115.02" from="151770986" to="-215089916#3" departLane="best" type="veh_passenger"/>
    <trip id="veh221" depart="115.54" from="-215090078#1" to="-215089943" departLane="best" type="veh_passenger"/>
    <trip id="veh222" depart="116.07" from="566888447#3" to="415062374" departLane="best" type="veh_passenger"/>
    <trip id="veh223" depart="116.59" from="806357169#0" to="825118129#2" departLane="best" type="veh_passenger"/>
    <trip id="veh224" depart="117.11" from="31017861#3" to="646210542#5" departLane="best" type="veh_passenger"/>
    <trip id="veh225" depart="117.64" from="646210541#3" to="215090046#0" departLane="best" type="veh_passenger"/>
    <trip id="veh226" depart="118.16" from="-1431976930#1" to="-1431976931" departLane="best" type="veh_passenger"/>
    <trip id="veh227" depart="118.68" from="646210542#0" to="-215090077" departLane="best" type="veh_passenger"/>
    <trip id="veh228" depart="119.20" from="571283261#9" to="825118129#4" departLane="best" type="veh_passenger"/>
    <trip id="veh229" depart="119.73" from="31017896#2" to="-151770988#6" departLane="best" type="veh_passenger"/>
    <trip id="veh230" depart="120.25" from="571283261#0" to="596071807#1" departLane="best" type="veh_passenger" departSpeed="max"/>
    <trip id="veh231" depart="120.77" from="-825118129#0" to="707832926#6" departLane="best" type="veh_passenger"/>
    <trip id="veh232" depart="121.30" from="-588859419#1" to="566888436#0" departLane="best" type="veh_passenger"/>
    <trip id="veh233" depart="121.82" from="1078958802#1" to="707832926#0" departLane="best" type="veh_passenger"/>
    <trip id="veh234" depart="122.34" from="588859419#3" to="-215089911#4" departLane="best" type="veh_passenger"/>
    <trip id="veh235" depart="122.86" from="1305503506" to="646210542#3" departLane="best" type="veh_passenger"/>
    <trip id="veh236" depart="123.39" from="820174850#1" to="1431978404#3" departLane="best" type="veh_passenger"/>
    <trip id="veh237" depart="123.91" from="-215090046#6" to="235957078#2" departLane="best" type="veh_passenger" departSpeed="max"/>
    <trip id="veh238" depart="124.43" from="-646210541#3" to="-1431978404#3" departLane="best" type="veh_passenger"/>
    <trip id="veh239" depart="124.96" from="-1177915924" to="1195576992#4" departLane="best" type="veh_passenger" departSpeed="max"/>
    <trip id="veh240" depart="125.48" from="-1192068860" to="31017890#2" departLane="best" type="veh_passenger" departSpeed="max"/>
    <trip id="veh241" depart="126.00" from="151770988#5" to="31017890#0" departLane="best" type="veh_passenger"/>
    <trip id="veh242" depart="126.52" from="646210542#3" to="-749128442#4" departLane="best" type="veh_passenger"/>
    <trip id="veh243" depart="127.05" from="215090077" to="-215090070#0" departLane="best" type="veh_passenger"/>
    <trip id="veh244" depart="127.57" from="31017896#1" to="827899848" departLane="best" type="veh_passenger"/>