<?xml version="1.0" ?>
<additional>
  <tlLogic id="10006525749" type="static" programID="fixed_60" offset="0">
    <phase duration="60" state="G"/>
    <phase duration="3" state="y"/>
  </tlLogic>
  <tlLogic id="10006525749" type="static" programID="rl_program" offset="0">
    <phase duration="10" state="G"/>
    <phase duration="3" state="y"/>
  </tlLogic>
  <tlLogic id="10172786319" type="static" programID="fixed_60" offset="0">
    <phase duration="60" state="rrGGGrr"/>
    <phase duration="3" state="rryyyrr"/>
    <phase duration="60" state="GGrrrrr"/>
    <phase duration="3" state="yyrrrrr"/>
    <phase duration="60" state="rrrrrGG"/>
    <phase duration="3" state="rrrrryy"/>
  </tlLogic>
  <tlLogic id="10172786319" type="static" programID="rl_program" offset="0">
    <phase duration="10" state="rrGGGrr"/>
    <phase duration="3" state="rryyyrr"/>
    <phase duration="10" state="GGrrrrr"/>
    <phase duration="3" state="yyrrrrr"/>
    <phase duration="10" state="rrrrrGG"/>
    <phase duration="3" state="rrrrryy"/>
  </tlLogic>
  <tlLogic id="10215107460" type="static" programID="fixed_60" offset="0">
    <phase duration="60" state="G"/>
    <phase duration="3" state="y"/>
  </tlLogic>
  <tlLogic id="10215107460" type="static" programID="rl_program" offset="0">
    <phase duration="10" state="G"/>
    <phase duration="3" state="y"/>
  </tlLogic>
  <tlLogic id="10261850243" type="static" programID="fixed_60" offset="0">
    <phase duration="60" state="rrrrrrGGG"/>
    <phase duration="3" state="rrrrrryyy"/>
    <phase duration="60" state="rrrGGGrrr"/>
    <phase duration="3" state="rrryyyrrr"/>
    <phase duration="60" state="GGGrrrrrr"/>
    <phase duration="3" state="yyyrrrrrr"/>
  </tlLogic>
  <tlLogic id="10261850243" type="static" programID="rl_program" offset="0">
    <phase duration="10" state="rrrrrrGGG"/>
    <phase duration="3" state="rrrrrryyy"/>
    <phase duration="10" state="rrrGGGrrr"/>
    <phase duration="3" state="rrryyyrrr"/>
    <phase duration="10" state="GGGrrrrrr"/>
    <phase duration="3" state="yyyrrrrrr"/>
  </tlLogic>
  <tlLogic id="10580905493" type="static" programID="fixed_60" offset="0">
    <phase duration="60" state="rrrGGGrrr"/>
    <phase duration="3" state="rrryyyrrr"/>
    <phase duration="60" state="GGGrrrrrr"/>
    <phase duration="3" state="yyyrrrrrr"/>
    <phase duration="60" state="rrrrrrGGG"/>
    <phase duration="3" state="rrrrrryyy"/>
  </tlLogic>
  <tlLogic id="10580905493" type="static" programID="rl_program" offset="0">
    <phase duration="10" state="rrrGGGrrr"/>
    <phase duration="3" state="rrryyyrrr"/>
    <phase duration="10" state="GGGrrrrrr"/>
    <phase duration="3" state="yyyrrrrrr"/>
    <phase duration="10" state="rrrrrrGGG"/>
    <phase duration="3" state="rrrrrryyy"/>
  </tlLogic>
  <tlLogic id="10765731567" type="static" programID="fixed_60" offset="0">
    <phase duration="60" state="GGGG"/>
    <phase duration="3" state="yyyy"/>
  </tlLogic>
  <tlLogic id="10765731567" type="static" programID="rl_program" offset="0">
    <phase duration="10" state="GGGG"/>
    <phase duration="3" state="yyyy"/>
  </tlLogic>
  <tlLogic id="10941396748" type="static" programID="fixed_60" offset="0">
    <phase duration="60" state="rrrrrrGGG"/>
    <phase duration="3" state="rrrrrryyy"/>
    <phase duration="60" state="GGGrrrrrr"/>
    <phase duration="3" state="yyyrrrrrr"/>
    <phase duration="60" state="rrrGGGrrr"/>
    <phase duration="3" state="rrryyyrrr"/>
  </tlLogic>
  <tlLogic id="10941396748" type="static" programID="rl_program" offset="0">
    <phase duration="10" state="rrrrrrGGG"/>
    <phase duration="3" state="rrrrrryyy"/>
    <phase duration="10" state="GGGrrrrrr"/>
    <phase duration="3" state="yyyrrrrrr"/>
    <phase duration="10" state="rrrGGGrrr"/>
    <phase duration="3" state="rrryyyrrr"/>
  </tlLogic>
  <tlLogic id="10942351673" type="static" programID="fixed_60" offset="0">
    <phase duration="60" state="rrGGGrr"/>
    <phase duration="3" state="rryyyrr"/>
    <phase duration="60" state="GGrrrrr"/>
    <phase duration="3" state="yyrrrrr"/>
    <phase duration="60" state="rrrrrGG"/>
    <phase duration="3" state="rrrrryy"/>
  </tlLogic>
  <tlLogic id="10942351673" type="static" programID="rl_program" offset="0">
    <phase duration="10" state="rrGGGrr"/>
    <phase duration="3" state="rryyyrr"/>
    <phase duration="10" state="GGrrrrr"/>
    <phase duration="3" state="yyrrrrr"/>
    <phase duration="10" state="rrrrrGG"/>
    <phase duration="3" state="rrrrryy"/>
  </tlLogic>
  <tlLogic id="10942351676" type="static" programID="fixed_60" offset="0">
    <phase duration="60" state="rrGGGrr"/>
    <phase duration="3" state="rryyyrr"/>
    <phase duration="60" state="GGrrrrr"/>
    <phase duration="3" state="yyrrrrr"/>
    <phase duration="60" state="rrrrrGG"/>
    <phase duration="3" state="rrrrryy"/>
  </tlLogic>
  <tlLogic id="10942351676" type="static" programID="rl_program" offset="0">
    <phase duration="10" state="rrGGGrr"/>
    <phase duration="3" state="rryyyrr"/>
    <phase duration="10" state="GGrrrrr"/>
    <phase duration="3" state="yyrrrrr"/>
    <phase duration="10" state="rrrrrGG"/>
    <phase duration="3" state="rrrrryy"/>
  </tlLogic>
  <tlLogic id="10942351679" type="static" programID="fixed_60" offset="0">
    <phase duration="60" state="rrGGrrr"/>
    <phase duration="3" state="rryyrrr"/>
    <phase duration="60" state="rrrrGGG"/>
    <phase duration="3" state="rrrryyy"/>
    <phase duration="60" state="GGrrrrr"/>
    <phase duration="3" state="yyrrrrr"/>
  </tlLogic>
  <tlLogic id="10942351679" type="static" programID="rl_program" offset="0">
    <phase duration="10" state="rrGGrrr"/>
    <phase duration="3" state="rryyrrr"/>
    <phase duration="10" state="rrrrGGG"/>
    <phase duration="3" state="rrrryyy"/>
    <phase duration="10" state="GGrrrrr"/>
    <phase duration="3" state="yyrrrrr"/>
  </tlLogic>
  <tlLogic id="10942351682" type="static" programID="fixed_60" offset="0">
    <phase duration="60" state="rrrGGGrrr"/>
    <phase duration="3" state="rrryyyrrr"/>
    <phase duration="60" state="GGGrrrrrr"/>
    <phase duration="3" state="yyyrrrrrr"/>
    <phase duration="60" state="rrrrrrGGG"/>
    <phase duration="3" state="rrrrrryyy"/>
  </tlLogic>
  <tlLogic id="10942351682" type="static" programID="rl_program" offset="0">
    <phase duration="10" state="rrrGGGrrr"/>
    <phase duration="3" state="rrryyyrrr"/>
    <phase duration="10" state="GGGrrrrrr"/>
    <phase duration="3" state="yyyrrrrrr"/>
    <phase duration="10" state="rrrrrrGGG"/>
    <phase duration="3" state="rrrrrryyy"/>
  </tlLogic>
  <tlLogic id="10944042503" type="static" programID="fixed_60" offset="0">
    <phase duration="60" state="GGGrrrrrr"/>
    <phase duration="3" state="yyyrrrrrr"/>
    <phase duration="60" state="rrrrrrGGG"/>
    <phase duration="3" state="rrrrrryyy"/>
    <phase duration="60" state="rrrGGGrrr"/>
    <phase duration="3" state="rrryyyrrr"/>
  </tlLogic>
  <tlLogic id="10944042503" type="static" programID="rl_program" offset="0">
    <phase duration="10" state="GGGrrrrrr"/>
    <phase duration="3" state="yyyrrrrrr"/>
    <phase duration="10" state="rrrrrrGGG"/>
    <phase duration="3" state="rrrrrryyy"/>
    <phase duration="10" state="rrrGGGrrr"/>
    <phase duration="3" state="rrryyyrrr"/>
  </tlLogic>
  <tlLogic id="10944046880" type="static" programID="fixed_60" offset="0">
    <phase duration="60" state="GGGrrrrrr"/>
    <phase duration="3" state="yyyrrrrrr"/>
    <phase duration="60" state="rrrGGGrrr"/>
    <phase duration="3" state="rrryyyrrr"/>
    <phase duration="60" state="rrrrrrGGG"/>
    <phase duration="3" state="rrrrrryyy"/>
  </tlLogic>
  <tlLogic id="10944046880" type="static" programID="rl_program" offset="0">
    <phase duration="10" state="GGGrrrrrr"/>
    <phase duration="3" state="yyyrrrrrr"/>
    <phase duration="10" state="rrrGGGrrr"/>
    <phase duration="3" state="rrryyyrrr"/>
    <phase duration="10" state="rrrrrrGGG"/>
    <phase duration="3" state="rrrrrryyy"/>
  </tlLogic>
  <tlLogic id="11024173961" type="static" programID="fixed_60" offset="0">
    <phase duration="60" state="GGrrrrr"/>
    <phase duration="3" state="yyrrrrr"/>
    <phase duration="60" state="rrGGGrr"/>
    <phase duration="3" state="rryyyrr"/>
    <phase duration="60" state="rrrrrGG"/>
    <phase duration="3" state="rrrrryy"/>
  </tlLogic>
  <tlLogic id="11024173961" type="static" programID="rl_program" offset="0">
    <phase duration="10" state="GGrrrrr"/>
    <phase duration="3" state="yyrrrrr"/>
    <phase duration="10" state="rrGGGrr"/>
    <phase duration="3" state="rryyyrr"/>
    <phase duration="10" state="rrrrrGG"/>
    <phase duration="3" state="rrrrryy"/>
  </tlLogic>
  <tlLogic id="11024173963" type="static" programID="fixed_60" offset="0">
    <phase duration="60" state="GGrrrrr"/>
    <phase duration="3" state="yyrrrrr"/>
    <phase duration="60" state="rrrrrGG"/>
    <phase duration="3" state="rrrrryy"/>
    <phase duration="60" state="rrGGGrr"/>
    <phase duration="3" state="rryyyrr"/>
  </tlLogic>
  <tlLogic id="11024173963" type="static" programID="rl_program" offset="0">
    <phase duration="10" state="GGrrrrr"/>
    <phase duration="3" state="yyrrrrr"/>
    <phase duration="10" state="rrrrrGG"/>
    <phase duration="3" state="rrrrryy"/>
    <phase duration="10" state="rrGGGrr"/>
    <phase duration="3" state="rryyyrr"/>
  </tlLogic>
  <tlLogic id="11024176120" type="static" programID="fixed_60" offset="0">
    <phase duration="60" state="rrrGGrr"/>
    <phase duration="3" state="rrryyrr"/>
    <phase duration="60" state="GGGrrrr"/>
    <phase duration="3" state="yyyrrrr"/>
    <phase duration="60" state="rrrrrGG"/>
    <phase duration="3" state="rrrrryy"/>
  </tlLogic>
  <tlLogic id="11024176120" type="static" programID="rl_program" offset="0">
    <phase duration="10" state="rrrGGrr"/>
    <phase duration="3" state="rrryyrr"/>
    <phase duration="10" state="GGGrrrr"/>
    <phase duration="3" state="yyyrrrr"/>
    <phase duration="10" state="rrrrrGG"/>
    <phase duration="3" state="rrrrryy"/>
  </tlLogic>
  <tlLogic id="11024205345" type="static" programID="fixed_60" offset="0">
    <phase duration="60" state="G"/>
    <phase duration="3" state="y"/>
  </tlLogic>
  <tlLogic id="11024205345" type="static" programID="rl_program" offset="0">
    <phase duration="10" state="G"/>
    <phase duration="3" state="y"/>
  </tlLogic>
  <tlLogic id="11024205346" type="static" programID="fixed_60" offset="0">
    <phase duration="60" state="rrGGGrr"/>
    <phase duration="3" state="rryyyrr"/>
    <phase duration="60" state="rrrrrGG"/>
    <phase duration="3" state="rrrrryy"/>
    <phase duration="60" state="GGrrrrr"/>
    <phase duration="3" state="yyrrrrr"/>
  </tlLogic>
  <tlLogic id="11024205346" type="static" programID="rl_program" offset="0">
    <phase duration="10" state="rrGGGrr"/>
    <phase duration="3" state="rryyyrr"/>
    <phase duration="10" state="rrrrrGG"/>
    <phase duration="3" state="rrrrryy"/>
    <phase duration="10" state="GGrrrrr"/>
    <phase duration="3" state="yyrrrrr"/>
  </tlLogic>
  <tlLogic id="11024205351" type="static" programID="fixed_60" offset="0">
    <phase duration="60" state="rrrGGGrrr"/>
    <phase duration="3" state="rrryyyrrr"/>
    <phase duration="60" state="rrrrrrGGG"/>
    <phase duration="3" state="rrrrrryyy"/>
    <phase duration="60" state="GGGrrrrrr"/>
    <phase duration="3" state="yyyrrrrrr"/>
  </tlLogic>
  <tlLogic id="11024205351" type="static" programID="rl_program" offset="0">
    <phase duration="10" state="rrrGGGrrr"/>
    <phase duration="3" state="rrryyyrrr"/>
    <phase duration="10" state="rrrrrrGGG"/>
    <phase duration="3" state="rrrrrryyy"/>
    <phase duration="10" state="GGGrrrrrr"/>
    <phase duration="3" state="yyyrrrrrr"/>
  </tlLogic>
  <tlLogic id="11024205353" type="static" programID="fixed_60" offset="0">
    <phase duration="60" state="rrrGGGrrr"/>
    <phase duration="3" state="rrryyyrrr"/>
    <phase duration="60" state="rrrrrrGGG"/>
    <phase duration="3" state="rrrrrryyy"/>
    <phase duration="60" state="GGGrrrrrr"/>
    <phase duration="3" state="yyyrrrrrr"/>
  </tlLogic>
  <tlLogic id="11024205353" type="static" programID="rl_program" offset="0">
    <phase duration="10" state="rrrGGGrrr"/>
    <phase duration="3" state="rrryyyrrr"/>
    <phase duration="10" state="rrrrrrGGG"/>
    <phase duration="3" state="rrrrrryyy"/>
    <phase duration="10" state="GGGrrrrrr"/>
    <phase duration="3" state="yyyrrrrrr"/>
  </tlLogic>
  <tlLogic id="11024335707" type="static" programID="fixed_60" offset="0">
    <phase duration="60" state="rrrGG"/>
    <phase duration="3" state="rrryy"/>
    <phase duration="60" state="GGGrr"/>
    <phase duration="3" state="yyyrr"/>
  </tlLogic>
  <tlLogic id="11024335707" type="static" programID="rl_program" offset="0">
    <phase duration="10" state="rrrGG"/>
    <phase duration="3" state="rrryy"/>
    <phase duration="10" state="GGGrr"/>
    <phase duration="3" state="yyyrr"/>
  </tlLogic>
  <tlLogic id="11024335709" type="static" programID="fixed_60" offset="0">
    <phase duration="60" state="rrrrrrGGG"/>
    <phase duration="3" state="rrrrrryyy"/>
    <phase duration="60" state="rrrGGGrrr"/>
    <phase duration="3" state="rrryyyrrr"/>
    <phase duration="60" state="GGGrrrrrr"/>
    <phase duration="3" state="yyyrrrrrr"/>
  </tlLogic>
  <tlLogic id="11024335709" type="static" programID="rl_program" offset="0">
    <phase duration="10" state="rrrrrrGGG"/>
    <phase duration="3" state="rrrrrryyy"/>
    <phase duration="10" state="rrrGGGrrr"/>
    <phase duration="3" state="rrryyyrrr"/>
    <phase duration="10" state="GGGrrrrrr"/>
    <phase duration="3" state="yyyrrrrrr"/>
  </tlLogic>
  <tlLogic id="11024471320" type="static" programID="fixed_60" offset="0">
    <phase duration="60" state="GGGGrrrrrrrrrrrr"/>
    <phase duration="3" state="yyyyrrrrrrrrrrrr"/>
    <phase duration="60" state="rrrrrrrrrrrrGGGG"/>
    <phase duration="3" state="rrrrrrrrrrrryyyy"/>
    <phase duration="60" state="rrrrrrrrGGGGrrrr"/>
    <phase duration="3" state="rrrrrrrryyyyrrrr"/>
    <phase duration="60" state="rrrrGGGGrrrrrrrr"/>
    <phase duration="3" state="rrrryyyyrrrrrrrr"/>
  </tlLogic>
  <tlLogic id="11024471320" type="static" programID="rl_program" offset="0">
    <phase duration="10" state="GGGGrrrrrrrrrrrr"/>
    <phase duration="3" state="yyyyrrrrrrrrrrrr"/>
    <phase duration="10" state="rrrrrrrrrrrrGGGG"/>
    <phase duration="3" state="rrrrrrrrrrrryyyy"/>
    <phase duration="10" state="rrrrrrrrGGGGrrrr"/>
    <phase duration="3" state="rrrrrrrryyyyrrrr"/>
    <phase duration="10" state="rrrrGGGGrrrrrrrr"/>
    <phase duration="3" state="rrrryyyyrrrrrrrr"/>
  </tlLogic>
  <tlLogic id="11024753525" type="static" programID="fixed_60" offset="0">
    <phase duration="60" state="GGGrrrrrr"/>
    <phase duration="3" state="yyyrrrrrr"/>
    <phase duration="60" state="rrrrrrGGG"/>
    <phase duration="3" state="rrrrrryyy"/>
    <phase duration="60" state="rrrGGGrrr"/>
    <phase duration="3" state="rrryyyrrr"/>
  </tlLogic>
  <tlLogic id="11024753525" type="static" programID="rl_program" offset="0">
    <phase duration="10" state="GGGrrrrrr"/>
    <phase duration="3" state="yyyrrrrrr"/>
    <phase duration="10" state="rrrrrrGGG"/>
    <phase duration="3" state="rrrrrryyy"/>
    <phase duration="10" state="rrrGGGrrr"/>
    <phase duration="3" state="rrryyyrrr"/>
  </tlLogic>
  <tlLogic id="11024786095" type="static" programID="fixed_60" offset="0">
    <phase duration="60" state="GGGrrrrrr"/>
    <phase duration="3" state="yyyrrrrrr"/>
    <phase duration="60" state="rrrGGGrrr"/>
    <phase duration="3" state="rrryyyrrr"/>
    <phase duration="60" state="rrrrrrGGG"/>
    <phase duration="3" state="rrrrrryyy"/>
  </tlLogic>
  <tlLogic id="11024786095" type="static" programID="rl_program" offset="0">
    <phase duration="10" state="GGGrrrrrr"/>
    <phase duration="3" state="yyyrrrrrr"/>
    <phase duration="10" state="rrrGGGrrr"/>
    <phase duration="3" state="rrryyyrrr"/>
    <phase duration="10" state="rrrrrrGGG"/>
    <phase duration="3" state="rrrrrryyy"/>
  </tlLogic>
  <tlLogic id="11024809111" type="static" programID="fixed_60" offset="0">
    <phase duration="60" state="GGGrrrrrr"/>
    <phase duration="3" state="yyyrrrrrr"/>
    <phase duration="60" state="rrrGGGrrr"/>
    <phase duration="3" state="rrryyyrrr"/>
    <phase duration="60" state="rrrrrrGGG"/>
    <phase duration="3" state="rrrrrryyy"/>
  </tlLogic>
  <tlLogic id="11024809111" type="static" programID="rl_program" offset="0">
    <phase duration="10" state="GGGrrrrrr"/>
    <phase duration="3" state="yyyrrrrrr"/>
    <phase duration="10" state="rrrGGGrrr"/>
    <phase duration="3" state="rrryyyrrr"/>
    <phase duration="10" state="rrrrrrGGG"/>
    <phase duration="3" state="rrrrrryyy"/>
  </tlLogic>
  <tlLogic id="11055960344" type="static" programID="fixed_60" offset="0">
    <phase duration="60" state="rrGGGrr"/>
    <phase duration="3" state="rryyyrr"/>
    <phase duration="60" state="GGrrrrr"/>
    <phase duration="3" state="yyrrrrr"/>
    <phase duration="60" state="rrrrrGG"/>
    <phase duration="3" state="rrrrryy"/>
  </tlLogic>
  <tlLogic id="11055960344" type="static" programID="rl_program" offset="0">
    <phase duration="10" state="rrGGGrr"/>
    <phase duration="3" state="rryyyrr"/>
    <phase duration="10" state="GGrrrrr"/>
    <phase duration="3" state="yyrrrrr"/>
    <phase duration="10" state="rrrrrGG"/>
    <phase duration="3" state="rrrrryy"/>
  </tlLogic>
  <tlLogic id="11055989392" type="static" programID="fixed_60" offset="0">
    <phase duration="60" state="GGGrrrrrr"/>
    <phase duration="3" state="yyyrrrrrr"/>
    <phase duration="60" state="rrrGGGrrr"/>
    <phase duration="3" state="rrryyyrrr"/>
    <phase duration="60" state="rrrrrrGGG"/>
    <phase duration="3" state="rrrrrryyy"/>
  </tlLogic>
  <tlLogic id="11055989392" type="static" programID="rl_program" offset="0">
    <phase duration="10" state="GGGrrrrrr"/>
    <phase duration="3" state="yyyrrrrrr"/>
    <phase duration="10" state="rrrGGGrrr"/>
    <phase duration="3" state="rrryyyrrr"/>
    <phase duration="10" state="rrrrrrGGG"/>
    <phase duration="3" state="rrrrrryyy"/>
  </tlLogic>
  <tlLogic id="11055989395" type="static" programID="fixed_60" offset="0">
    <phase duration="60" state="rrrrrrGGG"/>
    <phase duration="3" state="rrrrrryyy"/>
    <phase duration="60" state="GGGrrrrrr"/>
    <phase duration="3" state="yyyrrrrrr"/>
    <phase duration="60" state="rrrGGGrrr"/>
    <phase duration="3" state="rrryyyrrr"/>
  </tlLogic>
  <tlLogic id="11055989395" type="static" programID="rl_program" offset="0">
    <phase duration="10" state="rrrrrrGGG"/>
    <phase duration="3" state="rrrrrryyy"/>
    <phase duration="10" state="GGGrrrrrr"/>
    <phase duration="3" state="yyyrrrrrr"/>
    <phase duration="10" state="rrrGGGrrr"/>
    <phase duration="3" state="rrryyyrrr"/>
  </tlLogic>
  <tlLogic id="11055989397" type="static" programID="fixed_60" offset="0">
    <phase duration="60" state="rrrGGGrrr"/>
    <phase duration="3" state="rrryyyrrr"/>
    <phase duration="60" state="GGGrrrrrr"/>
    <phase duration="3" state="yyyrrrrrr"/>
    <phase duration="60" state="rrrrrrGGG"/>
    <phase duration="3" state="rrrrrryyy"/>
  </tlLogic>
  <tlLogic id="11055989397" type="static" programID="rl_program" offset="0">
    <phase duration="10" state="rrrGGGrrr"/>
    <phase duration="3" state="rrryyyrrr"/>
    <phase duration="10" state="GGGrrrrrr"/>
    <phase duration="3" state="yyyrrrrrr"/>
    <phase duration="10" state="rrrrrrGGG"/>
    <phase duration="3" state="rrrrrryyy"/>
  </tlLogic>
  <tlLogic id="11056005657" type="static" programID="fixed_60" offset="0">
    <phase duration="60" state="GGGrrrrrr"/>
    <phase duration="3" state="yyyrrrrrr"/>
    <phase duration="60" state="rrrrrrGGG"/>
    <phase duration="3" state="rrrrrryyy"/>
    <phase duration="60" state="rrrGGGrrr"/>
    <phase duration="3" state="rrryyyrrr"/>
  </tlLogic>
  <tlLogic id="11056005657" type="static" programID="rl_program" offset="0">
    <phase duration="10" state="GGGrrrrrr"/>
    <phase duration="3" state="yyyrrrrrr"/>
    <phase duration="10" state="rrrrrrGGG"/>
    <phase duration="3" state="rrrrrryyy"/>
    <phase duration="10" state="rrrGGGrrr"/>
    <phase duration="3" state="rrryyyrrr"/>
  </tlLogic>
  <tlLogic id="11056019968" type="static" programID="fixed_60" offset="0">
    <phase duration="60" state="rrrGGGrrr"/>
    <phase duration="3" state="rrryyyrrr"/>
    <phase duration="60" state="GGGrrrrrr"/>
    <phase duration="3" state="yyyrrrrrr"/>
    <phase duration="60" state="rrrrrrGGG"/>
    <phase duration="3" state="rrrrrryyy"/>
  </tlLogic>
  <tlLogic id="11056019968" type="static" programID="rl_program" offset="0">
    <phase duration="10" state="rrrGGGrrr"/>
    <phase duration="3" state="rrryyyrrr"/>
    <phase duration="10" state="GGGrrrrrr"/>
    <phase duration="3" state="yyyrrrrrr"/>
    <phase duration="10" state="rrrrrrGGG"/>
    <phase duration="3" state="rrrrrryyy"/>
  </tlLogic>
  <tlLogic id="11066825835" type="static" programID="fixed_60" offset="0">
    <phase duration="60" state="GGrrrrr"/>
    <phase duration="3" state="yyrrrrr"/>
    <phase duration="60" state="rrGGGrr"/>
    <phase duration="3" state="rryyyrr"/>
    <phase duration="60" state="rrrrrGG"/>
    <phase duration="3" state="rrrrryy"/>
  </tlLogic>
  <tlLogic id="11066825835" type="static" programID="rl_program" offset="0">
    <phase duration="10" state="GGrrrrr"/>
    <phase duration="3" state="yyrrrrr"/>
    <phase duration="10" state="rrGGGrr"/>
    <phase duration="3" state="rryyyrr"/>
    <phase duration="10" state="rrrrrGG"/>
    <phase duration="3" state="rrrrryy"/>
  </tlLogic>
  <tlLogic id="11066835723" type="static" programID="fixed_60" offset="0">
    <phase duration="60" state="GGrrrrr"/>
    <phase duration="3" state="yyrrrrr"/>
    <phase duration="60" state="rrGGGrr"/>
    <phase duration="3" state="rryyyrr"/>
    <phase duration="60" state="rrrrrGG"/>
    <phase duration="3" state="rrrrryy"/>
  </tlLogic>
  <tlLogic id="11066835723" type="static" programID="rl_program" offset="0">
    <phase duration="10" state="GGrrrrr"/>
    <phase duration="3" state="yyrrrrr"/>
    <phase duration="10" state="rrGGGrr"/>
    <phase duration="3" state="rryyyrr"/>
    <phase duration="10" state="rrrrrGG"/>
    <phase duration="3" state="rrrrryy"/>
  </tlLogic>
  <tlLogic id="11066868268" type="static" programID="fixed_60" offset="0">
    <phase duration="60" state="rrrrrrGGG"/>
    <phase duration="3" state="rrrrrryyy"/>
    <phase duration="60" state="rrrGGGrrr"/>
    <phase duration="3" state="rrryyyrrr"/>
    <phase duration="60" state="GGGrrrrrr"/>
    <phase duration="3" state="yyyrrrrrr"/>
  </tlLogic>
  <tlLogic id="11066868268" type="static" programID="rl_program" offset="0">
    <phase duration="10" state="rrrrrrGGG"/>
    <phase duration="3" state="rrrrrryyy"/>
    <phase duration="10" state="rrrGGGrrr"/>
    <phase duration="3" state="rrryyyrrr"/>
    <phase duration="10" state="GGGrrrrrr"/>
    <phase duration="3" state="yyyrrrrrr"/>
  </tlLogic>
  <tlLogic id="11066887358" type="static" programID="fixed_60" offset="0">
    <phase duration="60" state="GGGrrrrrr"/>
    <phase duration="3" state="yyyrrrrrr"/>
    <phase duration="60" state="rrrGGGrrr"/>
    <phase duration="3" state="rrryyyrrr"/>
    <phase duration="60" state="rrrrrrGGG"/>
    <phase duration="3" state="rrrrrryyy"/>
  </tlLogic>
  <tlLogic id="11066887358" type="static" programID="rl_program" offset="0">
    <phase duration="10" state="GGGrrrrrr"/>
    <phase duration="3" state="yyyrrrrrr"/>
    <phase duration="10" state="rrrGGGrrr"/>
    <phase duration="3" state="rrryyyrrr"/>
    <phase duration="10" state="rrrrrrGGG"/>
    <phase duration="3" state="rrrrrryyy"/>
  </tlLogic>
  <tlLogic id="11068775506" type="static" programID="fixed_60" offset="0">
    <phase duration="60" state="G"/>
    <phase duration="3" state="y"/>
  </tlLogic>
  <tlLogic id="11068775506" type="static" programID="rl_program" offset="0">
    <phase duration="10" state="G"/>
    <phase duration="3" state="y"/>
  </tlLogic>
  <tlLogic id="11068776520" type="static" programID="fixed_60" offset="0">
    <phase duration="60" state="rrGGGrr"/>
    <phase duration="3" state="rryyyrr"/>
    <phase duration="60" state="GGrrrrr"/>
    <phase duration="3" state="yyrrrrr"/>
    <phase duration="60" state="rrrrrGG"/>
    <phase duration="3" state="rrrrryy"/>
  </tlLogic>
  <tlLogic id="11068776520" type="static" programID="rl_program" offset="0">
    <phase duration="10" state="rrGGGrr"/>
    <phase duration="3" state="rryyyrr"/>
    <phase duration="10" state="GGrrrrr"/>
    <phase duration="3" state="yyrrrrr"/>
    <phase duration="10" state="rrrrrGG"/>
    <phase duration="3" state="rrrrryy"/>
  </tlLogic>
  <tlLogic id="11068791196" type="static" programID="fixed_60" offset="0">
    <phase duration="60" state="rrGGGrr"/>
    <phase duration="3" state="rryyyrr"/>
    <phase duration="60" state="GGrrrrr"/>
    <phase duration="3" state="yyrrrrr"/>
    <phase duration="60" state="rrrrrGG"/>
    <phase duration="3" state="rrrrryy"/>
  </tlLogic>
  <tlLogic id="11068791196" type="static" programID="rl_program" offset="0">
    <phase duration="10" state="rrGGGrr"/>
    <phase duration="3" state="rryyyrr"/>
    <phase duration="10" state="GGrrrrr"/>
    <phase duration="3" state="yyrrrrr"/>
    <phase duration="10" state="rrrrrGG"/>
    <phase duration="3" state="rrrrryy"/>
  </tlLogic>
  <tlLogic id="11068810952" type="static" programID="fixed_60" offset="0">
    <phase duration="60" state="GGGrrrrrr"/>
    <phase duration="3" state="yyyrrrrrr"/>
    <phase duration="60" state="rrrGGGrrr"/>
    <phase duration="3" state="rrryyyrrr"/>
    <phase duration="60" state="rrrrrrGGG"/>
    <phase duration="3" state="rrrrrryyy"/>
  </tlLogic>
  <tlLogic id="11068810952" type="static" programID="rl_program" offset="0">
    <phase duration="10" state="GGGrrrrrr"/>
    <phase duration="3" state="yyyrrrrrr"/>
    <phase duration="10" state="rrrGGGrrr"/>
    <phase duration="3" state="rrryyyrrr"/>
    <phase duration="10" state="rrrrrrGGG"/>
    <phase duration="3" state="rrrrrryyy"/>
  </tlLogic>
  <tlLogic id="11068861635" type="static" programID="fixed_60" offset="0">
    <phase duration="60" state="G"/>
    <phase duration="3" state="y"/>
  </tlLogic>
  <tlLogic id="11068861635" type="static" programID="rl_program" offset="0">
    <phase duration="10" state="G"/>
    <phase duration="3" state="y"/>
  </tlLogic>
  <tlLogic id="11068861641" type="static" programID="fixed_60" offset="0">
    <phase duration="60" state="GGGrrrrrr"/>
    <phase duration="3" state="yyyrrrrrr"/>
    <phase duration="60" state="rrrGGGrrr"/>
    <phase duration="3" state="rrryyyrrr"/>
    <phase duration="60" state="rrrrrrGGG"/>
    <phase duration="3" state="rrrrrryyy"/>
  </tlLogic>
  <tlLogic id="11068861641" type="static" programID="rl_program" offset="0">
    <phase duration="10" state="GGGrrrrrr"/>
    <phase duration="3" state="yyyrrrrrr"/>
    <phase duration="10" state="rrrGGGrrr"/>
    <phase duration="3" state="rrryyyrrr"/>
    <phase duration="10" state="rrrrrrGGG"/>
    <phase duration="3" state="rrrrrryyy"/>
  </tlLogic>
  <tlLogic id="11182735640" type="static" programID="fixed_60" offset="0">
    <phase duration="60" state="rrrrrrGGG"/>
    <phase duration="3" state="rrrrrryyy"/>
    <phase duration="60" state="rrrGGGrrr"/>
    <phase duration="3" state="rrryyyrrr"/>
    <phase duration="60" state="GGGrrrrrr"/>
    <phase duration="3" state="yyyrrrrrr"/>
  </tlLogic>
  <tlLogic id="11182735640" type="static" programID="rl_program" offset="0">
    <phase duration="10" state="rrrrrrGGG"/>
    <phase duration="3" state="rrrrrryyy"/>
    <phase duration="10" state="rrrGGGrrr"/>
    <phase duration="3" state="rrryyyrrr"/>
    <phase duration="10" state="GGGrrrrrr"/>
    <phase duration="3" state="yyyrrrrrr"/>
  </tlLogic>
  <tlLogic id="11182735641" type="static" programID="fixed_60" offset="0">
    <phase duration="60" state="GGGGrrrrrrrrrrrr"/>
    <phase duration="3" state="yyyyrrrrrrrrrrrr"/>
    <phase duration="60" state="rrrrrrrrrrrrGGGG"/>
    <phase duration="3" state="rrrrrrrrrrrryyyy"/>
    <phase duration="60" state="rrrrrrrrGGGGrrrr"/>
    <phase duration="3" state="rrrrrrrryyyyrrrr"/>
    <phase duration="60" state="rrrrGGGGrrrrrrrr"/>
    <phase duration="3" state="rrrryyyyrrrrrrrr"/>
  </tlLogic>
  <tlLogic id="11182735641" type="static" programID="rl_program" offset="0">
    <phase duration="10" state="GGGGrrrrrrrrrrrr"/>
    <phase duration="3" state="yyyyrrrrrrrrrrrr"/>
    <phase duration="10" state="rrrrrrrrrrrrGGGG"/>
    <phase duration="3" state="rrrrrrrrrrrryyyy"/>
    <phase duration="10" state="rrrrrrrrGGGGrrrr"/>
    <phase duration="3" state="rrrrrrrryyyyrrrr"/>
    <phase duration="10" state="rrrrGGGGrrrrrrrr"/>
    <phase duration="3" state="rrrryyyyrrrrrrrr"/>
  </tlLogic>
  <tlLogic id="11183067553" type="static" programID="fixed_60" offset="0">
    <phase duration="60" state="GGGrrrr"/>
    <phase duration="3" state="yyyrrrr"/>
    <phase duration="60" state="rrrGGrr"/>
    <phase duration="3" state="rrryyrr"/>
    <phase duration="60" state="rrrrrGG"/>
    <phase duration="3" state="rrrrryy"/>
  </tlLogic>
  <tlLogic id="11183067553" type="static" programID="rl_program" offset="0">
    <phase duration="10" state="GGGrrrr"/>
    <phase duration="3" state="yyyrrrr"/>
    <phase duration="10" state="rrrGGrr"/>
    <phase duration="3" state="rrryyrr"/>
    <phase duration="10" state="rrrrrGG"/>
    <phase duration="3" state="rrrrryy"/>
  </tlLogic>
  <tlLogic id="12167474243" type="static" programID="fixed_60" offset="0">
    <phase duration="60" state="GGGrrrrrr"/>
    <phase duration="3" state="yyyrrrrrr"/>