<?xml version='1.0' encoding='utf-8'?>
<routes><vType id="stadium_veh" vClass="passenger" accel="2.6" decel="4.5" sigma="0.5" length="5" minGap="2.5" maxSpeed="50" color="red" /><vType id="stadium_moto" vClass="motorcycle" accel="5.0" decel="7.0" sigma="0.5" length="2" minGap="1.0" maxSpeed="60" color="red" /><vType id="stadium_bus" vClass="bus" accel="1.2" decel="4.0" sigma="0.5" length="12" minGap="2.5" maxSpeed="40" color="red" /><vType id="bg_veh" vClass="passenger" accel="2.6" decel="4.5" sigma="0.5" length="5" minGap="2.5" maxSpeed="50" color="gray" /><vType id="bg_moto" vClass="motorcycle" accel="5.0" decel="7.0" sigma="0.5" length="2" minGap="1.0" maxSpeed="60" color="gray" /><trip id="stadium_out_0" type="stadium_bus" depart="315.75" from="824815537" to="-1431976930#0" departLane="best" /><trip id="stadium_out_1" type="stadium_veh" depart="376.45" from="-376927932#4" to="415062368" departLane="best" /><trip id="stadium_out_2" type="stadium_bus" depart="155.28" from="656417182" to="415046264" departLane="best" /><trip id="stadium_out_3" type="stadium_bus" depart="1014.83" from="-31017861#3" to="-1178096191" departLane="best" /><trip id="stadium_out_4" type="stadium_veh" depart="122.03" from="235980021#3" to="-806357169#1" departLane="best" /><trip id="stadium_out_5" type="stadium_veh" depart="106.91" from="-376927932#2" to="-412307285#1" departLane="best" /><trip id="stadium_out_6" type="stadium_bus" depart="172.40" from="-376927932#3" to="-825118129#3" departLane="best" /><trip id="stadium_out_7" type="stadium_bus" depart="1084.82" from="-376927932#2" to="1116936513" departLane="best" /><trip id="stadium_out_8" type="stadium_veh" depart="649.41" from="-31017861#3" to="215089908#1" departLane="best" /><trip id="stadium_out_9" type="stadium_moto" depart="918.06" from="824815537" to="1195576992#7" departLane="best" /><trip id="stadium_out_10" type="stadium_bus" depart="154.92" from="361760623" to="646210542#1" departLane="best" /><trip id="stadium_out_11" type="stadium_moto" depart="414.41" from="824815537" to="-1192360898" departLane="best" /><trip id="stadium_out_12" type="stadium_veh" depart="1150.90" from="415062374" to="1053903050#1" departLane="best" /><trip id="stadium_out_13" type="stadium_moto" depart="1196.04" from="-376927932#3" to="215089911#3" departLane="best" /><trip id="stadium_out_14" type="stadium_veh" depart="201.31" from="376927932#4" to="566962242#2" departLane="best" /><trip id="stadium_out_15" type="stadium_veh" depart="983.41" from="824815537" to="-215089943" departLane="best" /><trip id="stadium_out_16" type="stadium_veh" depart="160.29" from="235980021#3" to="83276653#3" departLane="best" /><trip id="stadium_out_17" type="stadium_moto" depart="1019.67" from="-376927932#4" to="569837914#2" departLane="best" /><trip id="stadium_out_18" type="stadium_moto" depart="92.14" from="-376927932#3" to="-31017880#3" departLane="best" /><trip id="stadium_out_19" type="stadium_bus" depart="996.40" from="-376927932#3" to="-215090019" departLane="best" /><trip id="stadium_out_20" type="stadium_bus" depart="604.98" from="824815537" to="-215089916#4" departLane="best" /><trip id="stadium_out_21" type="stadium_veh" depart="1045.25" from="376927932#4" to="-588859419#4" departLane="best" /><trip id="stadium_out_22" type="stadium_moto" depart="88.48" from="31017861#3" to="423843627#1" departLane="best" /><trip id="stadium_out_23" type="stadium_veh" depart="719.98" from="824815537" to="-1195576992#0" departLane="best" /><trip id="stadium_out_24" type="stadium_bus" depart="955.95" from="656417182" to="215089916#3" departLane="best" /><trip id="stadium_out_25" type="stadium_veh" depart="802.89" from="-235980021#3" to="992634229#0" departLane="best" /><trip id="stadium_out_26" type="stadium_veh" depart="679.49" from="31017861#2" to="-825118129#7" departLane="best" /><trip id="stadium_out_27" type="stadium_bus" depart="445.34" from="-31017861#1" to="-569823304" departLane="best" /><trip id="stadium_out_28" type="stadium_veh" depart="523.58" from="-31017861#3" to="1064522846" departLane="best" /><trip id="stadium_out_29" type="stadium_bus" depart="931.46" from="-31017861#2" to="-588859419#2" departLane="best" /><trip id="stadium_out_30" type="stadium_moto" depart="820.63" from="-31017861#2" to="-215089911#6" departLane="best" /><trip id="stadium_out_31" type="stadium_veh" depart="354.57" from="-31017861#3" to="-646210541#1" departLane="best" /><trip id="stadium_out_32" type="stadium_veh" depart="598.62" from="235979102" to="215090046#5" departLane="best" /><trip id="stadium_out_33" type="stadium_bus" depart="1093.34" from="376927932#3" to="1187111140#1" departLane="best" /><trip id="stadium_out_34" type="stadium_moto" depart="103.70" from="-31017861#2" to="-215089911#5" departLane="best" /><trip id="stadium_out_35" type="stadium_veh" depart="1129.49" from="824815537" to="31017861#3" departLane="best" /><trip id="stadium_out_36" type="stadium_veh" depart="133.19" from="-235980021#3" to="1192084956#0" departLane="best" /><trip id="stadium_out_37" type="stadium_moto" depart="598.07" from="31017861#2" to="1195576992#10" departLane="best" /><trip id="stadium_out_38" type="stadium_veh" depart="827.08" from="-31017861#3" to="415193248#0" departLane="best" /><trip id="stadium_out_39" type="stadium_bus" depart="1173.52" from="-376927932#4" to="-215090070#2" departLane="best" /><trip id="stadium_out_40" type="stadium_veh" depart="548.70" from="-31017861#3" to="566962242#8" departLane="best" /><trip id="stadium_out_41" type="stadium_veh" depart="1077.64" from="656417182" to="820174848#1" departLane="best" /><trip id="stadium_out_42" type="stadium_moto" depart="38.78" from="-235980021#3" to="-31017880#0" departLane="best" /><trip id="stadium_out_43" type="stadium_bus" depart="570.23" from="235979102" to="-215090078#1" departLane="best" /><trip id="stadium_out_44" type="stadium_veh" depart="64.44" from="415062374" to="-415193247#0" departLane="best" /><trip id="stadium_out_45" type="stadium_moto" depart="263.48" from="656417182" to="-376927932#0" departLane="best" /><trip id="stadium_out_46" type="stadium_veh" depart="806.01" from="-31017861#2" to="-1431978404#0" departLane="best" /><trip id="stadium_out_47" type="stadium_moto" depart="545.12" from="-31017861#2" to="-235980021#3" departLane="best" /><trip id="stadium_out_48" type="stadium_veh" depart="1165.98" from="-31017861#1" to="-415062373" departLane="best" /><trip id="stadium_out_49" type="stadium_moto" depart="1152.43" from="235980021#3" to="-415193248#0" departLane="best" /><trip id="stadium_out_50" type="stadium_moto" depart="531.80" from="656417182" to="-31017861#6" departLane="best" /><trip id="stadium_out_51" type="stadium_veh" depart="766.28" from="824815537" to="1429893411" departLane="best" /><trip id="stadium_out_52" type="stadium_bus" depart="541.16" from="-31017861#1" to="215090018" departLane="best" /><trip id="stadium_out_53" type="stadium_veh" depart="443.54" from="-376927932#2" to="703884520#1" departLane="best" /><trip id="stadium_out_54" type="stadium_veh" depart="7.13" from="235979102" to="-703914561#0" departLane="best" /><trip id="stadium_out_55" type="stadium_veh" depart="345.97" from="235980021#3" to="596071807#3" departLane="best" /><trip id="stadium_out_56" type="stadium_bus" depart="1114.89" from="-376927932#4" to="806357165" departLane="best" /><trip id="stadium_out_57" type="stadium_bus" depart="949.86" from="376927932#3" to="1187127235#0" departLane="best" /><trip id="stadium_out_58" type="stadium_bus" depart="337.83" from="376927932#2" to="235980021#0" departLane="best" /><trip id="stadium_out_59" type="stadium_veh" depart="858.76" from="415062374" to="-215089908#1" departLane="best" /><trip id="stadium_out_60" type="stadium_moto" depart="280.76" from="235979102" to="575018150#1" departLane="best" /><trip id="stadium_out_61" type="stadium_bus" depart="1159.38" from="-376927932#4" to="-596071807#1" departLane="best" /><trip id="stadium_out_62" type="stadium_veh" depart="1178.81" from="-235979102" to="992634229#1" departLane="best" /><trip id="stadium_out_63" type="stadium_moto" depart="959.62" from="824815537" to="-569837914#0" departLane="best" /><trip id="stadium_out_64" type="stadium_veh" depart="1175.68" from="31017861#2" to="215089917#0" departLane="best" /><trip id="stadium_out_65" type="stadium_veh" depart="176.44" from="-31017861#1" to="-1206809261#1" departLane="best" /><trip id="stadium_out_66" type="stadium_veh" depart="1026.37" from="-376927932#2" to="215090046#3" departLane="best" /><trip id="stadium_out_67" type="stadium_moto" depart="126.61" from="-31017861#2" to="-825118129#2" departLane="best" /><trip id="stadium_out_68" type="stadium_moto" depart="933.96" from="235980021#3" to="820174848#1" departLane="best" /><trip id="stadium_out_69" type="stadium_veh" depart="69.43" from="824815537" to="-1164686614" departLane="best" /><trip id="stadium_out_70" type="stadium_veh" depart="548.07" from="-235980021#3" to="-31017861#4" departLane="best" /><trip id="stadium_out_71" type="stadium_moto" depart="457.97" from="-376927932#3" to="-215089917#2" departLane="best" /><trip id="stadium_out_72" type="stadium_moto" depart="636.42" from="-415062374" to="-1206809261#0" departLane="best" /><trip id="stadium_out_73" type="stadium_veh" depart="42.94" from="376927932#2" to="1195576992#0" departLane="best" /><trip id="stadium_out_74" type="stadium_bus" depart="29.77" from="31017861#3" to="-1177915924" departLane="best" /><trip id="stadium_out_75" type="stadium_moto" depart="1138.40" from="-376927932#4" to="-215090018" departLane="best" /><trip id="stadium_out_76" type="stadium_veh" depart="414.35" from="-824815537" to="1177915924" departLane="best" /><trip id="stadium_out_77" type="stadium_veh" depart="957.38" from="-376927932#4" to="787565488#1" departLane="best" /><trip id="stadium_out_78" type="stadium_bus" depart="625.31" from="824815537" to="1451563328#0" departLane="best" /><trip id="stadium_out_79" type="stadium_veh" depart="468.46" from="376927932#4" to="1192595036#0" departLane="best" /><trip id="stadium_out_80" type="stadium_veh" depart="304.56" from="376927932#3" to="-825118129#3" departLane="best" /><trip id="stadium_out_81" type="stadium_moto" depart="630.91" from="656417182" to="-1160006921#2" departLane="best" /><trip id="stadium_out_82" type="stadium_moto" depart="191.43" from="-824815537" to="-215089904#5" departLane="best" /><trip id="stadium_out_83" type="stadium_moto" depart="1092.61" from="824815537" to="571283261#4" departLane="best" /><trip id="stadium_out_84" type="stadium_moto" depart="297.07" from="-31017861#3" to="1076256494" departLane="best" /><trip id="stadium_out_85" type="stadium_moto" depart="224.73" from="31017861#3" to="1431978404#2" departLane="best" /><trip id="stadium_out_86" type="stadium_bus" depart="357.62" from="235980021#3" to="215090018" departLane="best" /><trip id="stadium_out_87" type="stadium_moto" depart="886.67" from="-235979102" to="-235978549" departLane="best" /><trip id="stadium_out_88" type="stadium_moto" depart="713.08" from="31017861#2" to="656417182" departLane="best" /><trip id="stadium_out_89" type="stadium_veh" depart="522.07" from="-415062374" to="1076256494" departLane="best" /><trip id="stadium_out_90" type="stadium_bus" depart="51.89" from="31017861#2" to="-1192595036#1" departLane="best" /><trip id="stadium_out_91" type="stadium_veh" depart="66.71" from="656417182" to="992634229#1" departLane="best" /><trip id="stadium_out_92" type="stadium_veh" depart="373.79" from="376927932#2" to="1116936513" departLane="best" /><trip id="stadium_out_93" type="stadium_moto" depart="881.73" from="-376927932#2" to="569837914#2" departLane="best" /><trip id="stadium_out_94" type="stadium_veh" depart="20.44" from="-376927932#2" to="1107314440" departLane="best" /><trip id="stadium_out_95" type="stadium_veh" depart="1064.47" from="-235979102" to="-575018147" departLane="best" /><trip id="stadium_out_96" type="stadium_veh" depart="1042.02" from="376927932#2" to="-659857898#3" departLane="best" /><trip id="stadium_out_97" type="stadium_veh" depart="236.54" from="376927932#3" to="-215089911#2" departLane="best" /><trip id="stadium_out_98" type="stadium_veh" depart="65.29" from="415062374" to="-588859419#1" departLane="best" /><trip id="stadium_out_99" type="stadium_veh" depart="668.60" from="235979102" to="415193247#2" departLane="best" /></routes>