<?xml version="1.0" ?>
<additional>
  <tlLogic id="10215107459" type="static" programID="fixed_60" offset="0">
    <phase duration="60" state="rrrrGGGGrrrrrrrr"/>
    <phase duration="3" state="rrrryyyyrrrrrrrr"/>
    <phase duration="60" state="rrrrrrrrrrrrGGGG"/>
    <phase duration="3" state="rrrrrrrrrrrryyyy"/>
    <phase duration="60" state="GGGGrrrrrrrrrrrr"/>
    <phase duration="3" state="yyyyrrrrrrrrrrrr"/>
    <phase duration="60" state="rrrrrrrrGGGGrrrr"/>
    <phase duration="3" state="rrrrrrrryyyyrrrr"/>
  </tlLogic>
  <tlLogic id="10215107459" type="static" programID="rl_program" offset="0">
    <phase duration="10" state="rrrrGGGGrrrrrrrr"/>
    <phase duration="3" state="rrrryyyyrrrrrrrr"/>
    <phase duration="10" state="rrrrrrrrrrrrGGGG"/>
    <phase duration="3" state="rrrrrrrrrrrryyyy"/>
    <phase duration="10" state="GGGGrrrrrrrrrrrr"/>
    <phase duration="3" state="yyyyrrrrrrrrrrrr"/>
    <phase duration="10" state="rrrrrrrrGGGGrrrr"/>
    <phase duration="3" state="rrrrrrrryyyyrrrr"/>
  </tlLogic>
  <tlLogic id="10261850243" type="static" programID="fixed_60" offset="0">
    <phase duration="60" state="rrrrrrGGG"/>
    <phase duration="3" state="rrrrrryyy"/>
    <phase duration="60" state="rrrGGGrrr"/>
    <phase duration="3" state="rrryyyrrr"/>
    <phase duration="60" state="GGGrrrrrr"/>
    <phase duration="3" state="yyyrrrrrr"/>
  </tlLogic>
  <tlLogic id="10261850243" type="static" programID="rl_program" offset="0">
    <phase duration="10" state="rrrrrrGGG"/>
    <phase duration="3" state="rrrrrryyy"/>
    <phase duration="10" state="rrrGGGrrr"/>
    <phase duration="3" state="rrryyyrrr"/>
    <phase duration="10" state="GGGrrrrrr"/>
    <phase duration="3" state="yyyrrrrrr"/>
  </tlLogic>
  <tlLogic id="10941396748" type="static" programID="fixed_60" offset="0">
    <phase duration="60" state="rrrrrrGGG"/>
    <phase duration="3" state="rrrrrryyy"/>
    <phase duration="60" state="GGGrrrrrr"/>
    <phase duration="3" state="yyyrrrrrr"/>
    <phase duration="60" state="rrrGGGrrr"/>
    <phase duration="3" state="rrryyyrrr"/>
  </tlLogic>
  <tlLogic id="10941396748" type="static" programID="rl_program" offset="0">
    <phase duration="10" state="rrrrrrGGG"/>
    <phase duration="3" state="rrrrrryyy"/>
    <phase duration="10" state="GGGrrrrrr"/>
    <phase duration="3" state="yyyrrrrrr"/>
    <phase duration="10" state="rrrGGGrrr"/>
    <phase duration="3" state="rrryyyrrr"/>
  </tlLogic>
  <tlLogic id="10942351682" type="static" programID="fixed_60" offset="0">
    <phase duration="60" state="rrrGGGrrr"/>
    <phase duration="3" state="rrryyyrrr"/>
    <phase duration="60" state="GGGrrrrrr"/>
    <phase duration="3" state="yyyrrrrrr"/>
    <phase duration="60" state="rrrrrrGGG"/>
    <phase duration="3" state="rrrrrryyy"/>
  </tlLogic>
  <tlLogic id="10942351682" type="static" programID="rl_program" offset="0">
    <phase duration="10" state="rrrGGGrrr"/>
    <phase duration="3" state="rrryyyrrr"/>
    <phase duration="10" state="GGGrrrrrr"/>
    <phase duration="3" state="yyyrrrrrr"/>
    <phase duration="10" state="rrrrrrGGG"/>
    <phase duration="3" state="rrrrrryyy"/>
  </tlLogic>
  <tlLogic id="10944042503" type="static" programID="fixed_60" offset="0">
    <phase duration="60" state="GGGrrrrrr"/>
    <phase duration="3" state="yyyrrrrrr"/>
    <phase duration="60" state="rrrrrrGGG"/>
    <phase duration="3" state="rrrrrryyy"/>
    <phase duration="60" state="rrrGGGrrr"/>
    <phase duration="3" state="rrryyyrrr"/>
  </tlLogic>
  <tlLogic id="10944042503" type="static" programID="rl_program" offset="0">
    <phase duration="10" state="GGGrrrrrr"/>
    <phase duration="3" state="yyyrrrrrr"/>
    <phase duration="10" state="rrrrrrGGG"/>
    <phase duration="3" state="rrrrrryyy"/>
    <phase duration="10" state="rrrGGGrrr"/>
    <phase duration="3" state="rrryyyrrr"/>
  </tlLogic>
  <tlLogic id="10944046880" type="static" programID="fixed_60" offset="0">
    <phase duration="60" state="GGGrrrrrr"/>
    <phase duration="3" state="yyyrrrrrr"/>
    <phase duration="60" state="rrrGGGrrr"/>
    <phase duration="3" state="rrryyyrrr"/>
    <phase duration="60" state="rrrrrrGGG"/>
    <phase duration="3" state="rrrrrryyy"/>
  </tlLogic>
  <tlLogic id="10944046880" type="static" programID="rl_program" offset="0">
    <phase duration="10" state="GGGrrrrrr"/>
    <phase duration="3" state="yyyrrrrrr"/>
    <phase duration="10" state="rrrGGGrrr"/>
    <phase duration="3" state="rrryyyrrr"/>
    <phase duration="10" state="rrrrrrGGG"/>
    <phase duration="3" state="rrrrrryyy"/>
  </tlLogic>
  <tlLogic id="11024205351" type="static" programID="fixed_60" offset="0">
    <phase duration="60" state="rrrGGGrrr"/>
    <phase duration="3" state="rrryyyrrr"/>
    <phase duration="60" state="rrrrrrGGG"/>
    <phase duration="3" state="rrrrrryyy"/>
    <phase duration="60" state="GGGrrrrrr"/>
    <phase duration="3" state="yyyrrrrrr"/>
  </tlLogic>
  <tlLogic id="11024205351" type="static" programID="rl_program" offset="0">
    <phase duration="10" state="rrrGGGrrr"/>
    <phase duration="3" state="rrryyyrrr"/>
    <phase duration="10" state="rrrrrrGGG"/>
    <phase duration="3" state="rrrrrryyy"/>
    <phase duration="10" state="GGGrrrrrr"/>
    <phase duration="3" state="yyyrrrrrr"/>
  </tlLogic>
  <tlLogic id="11024205353" type="static" programID="fixed_60" offset="0">
    <phase duration="60" state="rrrGGGrrr"/>
    <phase duration="3" state="rrryyyrrr"/>
    <phase duration="60" state="rrrrrrGGG"/>
    <phase duration="3" state="rrrrrryyy"/>
    <phase duration="60" state="GGGrrrrrr"/>
    <phase duration="3" state="yyyrrrrrr"/>
  </tlLogic>
  <tlLogic id="11024205353" type="static" programID="rl_program" offset="0">
    <phase duration="10" state="rrrGGGrrr"/>
    <phase duration="3" state="rrryyyrrr"/>
    <phase duration="10" state="rrrrrrGGG"/>
    <phase duration="3" state="rrrrrryyy"/>
    <phase duration="10" state="GGGrrrrrr"/>
    <phase duration="3" state="yyyrrrrrr"/>
  </tlLogic>
  <tlLogic id="11055989392" type="static" programID="fixed_60" offset="0">
    <phase duration="60" state="GGGrrrrrr"/>
    <phase duration="3" state="yyyrrrrrr"/>
    <phase duration="60" state="rrrGGGrrr"/>
    <phase duration="3" state="rrryyyrrr"/>
    <phase duration="60" state="rrrrrrGGG"/>
    <phase duration="3" state="rrrrrryyy"/>
  </tlLogic>
  <tlLogic id="11055989392" type="static" programID="rl_program" offset="0">
    <phase duration="10" state="GGGrrrrrr"/>
    <phase duration="3" state="yyyrrrrrr"/>
    <phase duration="10" state="rrrGGGrrr"/>
    <phase duration="3" state="rrryyyrrr"/>
    <phase duration="10" state="rrrrrrGGG"/>
    <phase duration="3" state="rrrrrryyy"/>
  </tlLogic>
  <tlLogic id="11055989395" type="static" programID="fixed_60" offset="0">
    <phase duration="60" state="rrrrrrGGG"/>
    <phase duration="3" state="rrrrrryyy"/>
    <phase duration="60" state="GGGrrrrrr"/>
    <phase duration="3" state="yyyrrrrrr"/>
    <phase duration="60" state="rrrGGGrrr"/>
    <phase duration="3" state="rrryyyrrr"/>
  </tlLogic>
  <tlLogic id="11055989395" type="static" programID="rl_program" offset="0">
    <phase duration="10" state="rrrrrrGGG"/>
    <phase duration="3" state="rrrrrryyy"/>
    <phase duration="10" state="GGGrrrrrr"/>
    <phase duration="3" state="yyyrrrrrr"/>
    <phase duration="10" state="rrrGGGrrr"/>
    <phase duration="3" state="rrryyyrrr"/>
  </tlLogic>
  <tlLogic id="11055989397" type="static" programID="fixed_60" offset="0">
    <phase duration="60" state="rrrGGGrrr"/>
    <phase duration="3" state="rrryyyrrr"/>
    <phase duration="60" state="GGGrrrrrr"/>
    <phase duration="3" state="yyyrrrrrr"/>
    <phase duration="60" state="rrrrrrGGG"/>
    <phase duration="3" state="rrrrrryyy"/>
  </tlLogic>
  <tlLogic id="11055989397" type="static" programID="rl_program" offset="0">
    <phase duration="10" state="rrrGGGrrr"/>
    <phase duration="3" state="rrryyyrrr"/>
    <phase duration="10" state="GGGrrrrrr"/>
    <phase duration="3" state="yyyrrrrrr"/>
    <phase duration="10" state="rrrrrrGGG"/>
    <phase duration="3" state="rrrrrryyy"/>
  </tlLogic>
  <tlLogic id="11056005657" type="static" programID="fixed_60" offset="0">
    <phase duration="60" state="GGGrrrrrr"/>
    <phase duration="3" state="yyyrrrrrr"/>
    <phase duration="60" state="rrrrrrGGG"/>
    <phase duration="3" state="rrrrrryyy"/>
    <phase duration="60" state="rrrGGGrrr"/>
    <phase duration="3" state="rrryyyrrr"/>
  </tlLogic>
  <tlLogic id="11056005657" type="static" programID="rl_program" offset="0">
    <phase duration="10" state="GGGrrrrrr"/>
    <phase duration="3" state="yyyrrrrrr"/>
    <phase duration="10" state="rrrrrrGGG"/>
    <phase duration="3" state="rrrrrryyy"/>
    <phase duration="10" state="rrrGGGrrr"/>
    <phase duration="3" state="rrryyyrrr"/>
  </tlLogic>
  <tlLogic id="11056019968" type="static" programID="fixed_60" offset="0">
    <phase duration="60" state="rrrGGGrrr"/>
    <phase duration="3" state="rrryyyrrr"/>
    <phase duration="60" state="GGGrrrrrr"/>
    <phase duration="3" state="yyyrrrrrr"/>
    <phase duration="60" state="rrrrrrGGG"/>
    <phase duration="3" state="rrrrrryyy"/>
  </tlLogic>
  <tlLogic id="11056019968" type="static" programID="rl_program" offset="0">
    <phase duration="10" state="rrrGGGrrr"/>
    <phase duration="3" state="rrryyyrrr"/>
    <phase duration="10" state="GGGrrrrrr"/>
    <phase duration="3" state="yyyrrrrrr"/>
    <phase duration="10" state="rrrrrrGGG"/>
    <phase duration="3" state="rrrrrryyy"/>
  </tlLogic>
  <tlLogic id="11182735640" type="static" programID="fixed_60" offset="0">
    <phase duration="60" state="rrrrrrGGG"/>
    <phase duration="3" state="rrrrrryyy"/>
    <phase duration="60" state="rrrGGGrrr"/>
    <phase duration="3" state="rrryyyrrr"/>
    <phase duration="60" state="GGGrrrrrr"/>
    <phase duration="3" state="yyyrrrrrr"/>
  </tlLogic>
  <tlLogic id="11182735640" type="static" programID="rl_program" offset="0">
    <phase duration="10" state="rrrrrrGGG"/>
    <phase duration="3" state="rrrrrryyy"/>
    <phase duration="10" state="rrrGGGrrr"/>
    <phase duration="3" state="rrryyyrrr"/>
    <phase duration="10" state="GGGrrrrrr"/>
    <phase duration="3" state="yyyrrrrrr"/>
  </tlLogic>
  <tlLogic id="11182735641" type="static" programID="fixed_60" offset="0">
    <phase duration="60" state="GGGGrrrrrrrrrrrr"/>
    <phase duration="3" state="yyyyrrrrrrrrrrrr"/>
    <phase duration="60" state="rrrrrrrrrrrrGGGG"/>
    <phase duration="3" state="rrrrrrrrrrrryyyy"/>
    <phase duration="60" state="rrrrrrrrGGGGrrrr"/>
    <phase duration="3" state="rrrrrrrryyyyrrrr"/>
    <phase duration="60" state="rrrrGGGGrrrrrrrr"/>
    <phase duration="3" state="rrrryyyyrrrrrrrr"/>
  </tlLogic>
  <tlLogic id="11182735641" type="static" programID="rl_program" offset="0">
    <phase duration="10" state="GGGGrrrrrrrrrrrr"/>
    <phase duration="3" state="yyyyrrrrrrrrrrrr"/>
    <phase duration="10" state="rrrrrrrrrrrrGGGG"/>
    <phase duration="3" state="rrrrrrrrrrrryyyy"/>
    <phase duration="10" state="rrrrrrrrGGGGrrrr"/>
    <phase duration="3" state="rrrrrrrryyyyrrrr"/>
    <phase duration="10" state="rrrrGGGGrrrrrrrr"/>
    <phase duration="3" state="rrrryyyyrrrrrrrr"/>
  </tlLogic>
  <tlLogic id="1646118611" type="static" programID="fixed_60" offset="0">
    <phase duration="60" state="GGGrrrrrr"/>
    <phase duration="3" state="yyyrrrrrr"/>
    <phase duration="60" state="rrrGGGrrr"/>
    <phase duration="3" state="rrryyyrrr"/>
    <phase duration="60" state="rrrrrrGGG"/>
    <phase duration="3" state="rrrrrryyy"/>
  </tlLogic>
  <tlLogic id="1646118611" type="static" programID="rl_program" offset="0">
    <phase duration="10" state="GGGrrrrrr"/>
    <phase duration="3" state="yyyrrrrrr"/>
    <phase duration="10" state="rrrGGGrrr"/>
    <phase duration="3" state="rrryyyrrr"/>
    <phase duration="10" state="rrrrrrGGG"/>
    <phase duration="3" state="rrrrrryyy"/>
  </tlLogic>
  <tlLogic id="1646118614" type="static" programID="fixed_60" offset="0">
    <phase duration="60" state="GGGrrrrrr"/>
    <phase duration="3" state="yyyrrrrrr"/>
    <phase duration="60" state="rrrGGGrrr"/>
    <phase duration="3" state="rrryyyrrr"/>
    <phase duration="60" state="rrrrrrGGG"/>
    <phase duration="3" state="rrrrrryyy"/>
  </tlLogic>
  <tlLogic id="1646118614" type="static" programID="rl_program" offset="0">
    <phase duration="10" state="GGGrrrrrr"/>
    <phase duration="3" state="yyyrrrrrr"/>
    <phase duration="10" state="rrrGGGrrr"/>
    <phase duration="3" state="rrryyyrrr"/>
    <phase duration="10" state="rrrrrrGGG"/>
    <phase duration="3" state="rrrrrryyy"/>
  </tlLogic>
  <tlLogic id="2245082040" type="static" programID="fixed_60" offset="0">
    <phase duration="60" state="GGGrrrrrr"/>
    <phase duration="3" state="yyyrrrrrr"/>
    <phase duration="60" state="rrrGGGrrr"/>
    <phase duration="3" state="rrryyyrrr"/>
    <phase duration="60" state="rrrrrrGGG"/>
    <phase duration="3" state="rrrrrryyy"/>
  </tlLogic>
  <tlLogic id="2245082040" type="static" programID="rl_program" offset="0">
    <phase duration="10" state="GGGrrrrrr"/>
    <phase duration="3" state="yyyrrrrrr"/>
    <phase duration="10" state="rrrGGGrrr"/>
    <phase duration="3" state="rrryyyrrr"/>
    <phase duration="10" state="rrrrrrGGG"/>
    <phase duration="3" state="rrrrrryyy"/>
  </tlLogic>
  <tlLogic id="2245082071" type="static" programID="fixed_60" offset="0">
    <phase duration="60" state="rrrGGGrrr"/>
    <phase duration="3" state="rrryyyrrr"/>
    <phase duration="60" state="GGGrrrrrr"/>
    <phase duration="3" state="yyyrrrrrr"/>
    <phase duration="60" state="rrrrrrGGG"/>
    <phase duration="3" state="rrrrrryyy"/>
  </tlLogic>
  <tlLogic id="2245082071" type="static" programID="rl_program" offset="0">
    <phase duration="10" state="rrrGGGrrr"/>
    <phase duration="3" state="rrryyyrrr"/>
    <phase duration="10" state="GGGrrrrrr"/>
    <phase duration="3" state="yyyrrrrrr"/>
    <phase duration="10" state="rrrrrrGGG"/>
    <phase duration="3" state="rrrrrryyy"/>
  </tlLogic>
  <tlLogic id="2245082111" type="static" programID="fixed_60" offset="0">
    <phase duration="60" state="GGGrrrrrr"/>
    <phase duration="3" state="yyyrrrrrr"/>
    <phase duration="60" state="rrrrrrGGG"/>
    <phase duration="3" state="rrrrrryyy"/>
    <phase duration="60" state="rrrGGGrrr"/>
    <phase duration="3" state="rrryyyrrr"/>
  </tlLogic>
  <tlLogic id="2245082111" type="static" programID="rl_program" offset="0">
    <phase duration="10" state="GGGrrrrrr"/>
    <phase duration="3" state="yyyrrrrrr"/>
    <phase duration="10" state="rrrrrrGGG"/>
    <phase duration="3" state="rrrrrryyy"/>
    <phase duration="10" state="rrrGGGrrr"/>
    <phase duration="3" state="rrryyyrrr"/>
  </tlLogic>
  <tlLogic id="2245082117" type="static" programID="fixed_60" offset="0">
    <phase duration="60" state="GGGrrrrrr"/>
    <phase duration="3" state="yyyrrrrrr"/>
    <phase duration="60" state="rrrrrrGGG"/>
    <phase duration="3" state="rrrrrryyy"/>
    <phase duration="60" state="rrrGGGrrr"/>
    <phase duration="3" state="rrryyyrrr"/>
  </tlLogic>
  <tlLogic id="2245082117" type="static" programID="rl_program" offset="0">
    <phase duration="10" state="GGGrrrrrr"/>
    <phase duration="3" state="yyyrrrrrr"/>
    <phase duration="10" state="rrrrrrGGG"/>
    <phase duration="3" state="rrrrrryyy"/>
    <phase duration="10" state="rrrGGGrrr"/>
    <phase duration="3" state="rrryyyrrr"/>
  </tlLogic>
  <tlLogic id="2245082169" type="static" programID="fixed_60" offset="0">
    <phase duration="60" state="rrrGGGrrr"/>
    <phase duration="3" state="rrryyyrrr"/>
    <phase duration="60" state="GGGrrrrrr"/>
    <phase duration="3" state="yyyrrrrrr"/>
    <phase duration="60" state="rrrrrrGGG"/>
    <phase duration="3" state="rrrrrryyy"/>
  </tlLogic>
  <tlLogic id="2245082169" type="static" programID="rl_program" offset="0">
    <phase duration="10" state="rrrGGGrrr"/>
    <phase duration="3" state="rrryyyrrr"/>
    <phase duration="10" state="GGGrrrrrr"/>
    <phase duration="3" state="yyyrrrrrr"/>
    <phase duration="10" state="rrrrrrGGG"/>
    <phase duration="3" state="rrrrrryyy"/>
  </tlLogic>
  <tlLogic id="2245082282" type="static" programID="fixed_60" offset="0">
    <phase duration="60" state="GGGrrrrrr"/>
    <phase duration="3" state="yyyrrrrrr"/>
    <phase duration="60" state="rrrGGGrrr"/>
    <phase duration="3" state="rrryyyrrr"/>
    <phase duration="60" state="rrrrrrGGG"/>
    <phase duration="3" state="rrrrrryyy"/>
  </tlLogic>
  <tlLogic id="2245082282" type="static" programID="rl_program" offset="0">
    <phase duration="10" state="GGGrrrrrr"/>
    <phase duration="3" state="yyyrrrrrr"/>
    <phase duration="10" state="rrrGGGrrr"/>
    <phase duration="3" state="rrryyyrrr"/>
    <phase duration="10" state="rrrrrrGGG"/>
    <phase duration="3" state="rrrrrryyy"/>
  </tlLogic>
  <tlLogic id="2245082284" type="static" programID="fixed_60" offset="0">
    <phase duration="60" state="GGGGrrrrrrrrrrrr"/>
    <phase duration="3" state="yyyyrrrrrrrrrrrr"/>
    <phase duration="60" state="rrrrGGGGrrrrrrrr"/>
    <phase duration="3" state="rrrryyyyrrrrrrrr"/>
    <phase duration="60" state="rrrrrrrrGGGGrrrr"/>
    <phase duration="3" state="rrrrrrrryyyyrrrr"/>
    <phase duration="60" state="rrrrrrrrrrrrGGGG"/>
    <phase duration="3" state="rrrrrrrrrrrryyyy"/>
  </tlLogic>
  <tlLogic id="2245082284" type="static" programID="rl_program" offset="0">
    <phase duration="10" state="GGGGrrrrrrrrrrrr"/>
    <phase duration="3" state="yyyyrrrrrrrrrrrr"/>
    <phase duration="10" state="rrrrGGGGrrrrrrrr"/>
    <phase duration="3" state="rrrryyyyrrrrrrrr"/>
    <phase duration="10" state="rrrrrrrrGGGGrrrr"/>
    <phase duration="3" state="rrrrrrrryyyyrrrr"/>
    <phase duration="10" state="rrrrrrrrrrrrGGGG"/>
    <phase duration="3" state="rrrrrrrrrrrryyyy"/>
  </tlLogic>
  <tlLogic id="2245082297" type="static" programID="fixed_60" offset="0">
    <phase duration="60" state="GGGrrrrrr"/>
    <phase duration="3" state="yyyrrrrrr"/>
    <phase duration="60" state="rrrGGGrrr"/>
    <phase duration="3" state="rrryyyrrr"/>
    <phase duration="60" state="rrrrrrGGG"/>
    <phase duration="3" state="rrrrrryyy"/>
  </tlLogic>
  <tlLogic id="2245082297" type="static" programID="rl_program" offset="0">
    <phase duration="10" state="GGGrrrrrr"/>
    <phase duration="3" state="yyyrrrrrr"/>
    <phase duration="10" state="rrrGGGrrr"/>
    <phase duration="3" state="rrryyyrrr"/>
    <phase duration="10" state="rrrrrrGGG"/>
    <phase duration="3" state="rrrrrryyy"/>
  </tlLogic>
  <tlLogic id="2245082309" type="static" programID="fixed_60" offset="0">
    <phase duration="60" state="GGGrrrrrr"/>
    <phase duration="3" state="yyyrrrrrr"/>
    <phase duration="60" state="rrrGGGrrr"/>
    <phase duration="3" state="rrryyyrrr"/>
    <phase duration="60" state="rrrrrrGGG"/>
    <phase duration="3" state="rrrrrryyy"/>
  </tlLogic>
  <tlLogic id="2245082309" type="static" programID="rl_program" offset="0">
    <phase duration="10" state="GGGrrrrrr"/>
    <phase duration="3" state="yyyrrrrrr"/>
    <phase duration="10" state="rrrGGGrrr"/>
    <phase duration="3" state="rrryyyrrr"/>
    <phase duration="10" state="rrrrrrGGG"/>
    <phase duration="3" state="rrrrrryyy"/>
  </tlLogic>
  <tlLogic id="2245082319" type="static" programID="fixed_60" offset="0">
    <phase duration="60" state="GGGrrrrrr"/>
    <phase duration="3" state="yyyrrrrrr"/>
    <phase duration="60" state="rrrGGGrrr"/>
    <phase duration="3" state="rrryyyrrr"/>
    <phase duration="60" state="rrrrrrGGG"/>
    <phase duration="3" state="rrrrrryyy"/>
  </tlLogic>
  <tlLogic id="2245082319" type="static" programID="rl_program" offset="0">
    <phase duration="10" state="GGGrrrrrr"/>
    <phase duration="3" state="yyyrrrrrr"/>
    <phase duration="10" state="rrrGGGrrr"/>
    <phase duration="3" state="rrryyyrrr"/>
    <phase duration="10" state="rrrrrrGGG"/>
    <phase duration="3" state="rrrrrryyy"/>
  </tlLogic>
  <tlLogic id="2245082330" type="static" programID="fixed_60" offset="0">
    <phase duration="60" state="rrrGGGrrr"/>
    <phase duration="3" state="rrryyyrrr"/>
    <phase duration="60" state="GGGrrrrrr"/>
    <phase duration="3" state="yyyrrrrrr"/>
    <phase duration="60" state="rrrrrrGGG"/>
    <phase duration="3" state="rrrrrryyy"/>
  </tlLogic>
  <tlLogic id="2245082330" type="static" programID="rl_program" offset="0">
    <phase duration="10" state="rrrGGGrrr"/>
    <phase duration="3" state="rrryyyrrr"/>
    <phase duration="10" state="GGGrrrrrr"/>
    <phase duration="3" state="yyyrrrrrr"/>
    <phase duration="10" state="rrrrrrGGG"/>
    <phase duration="3" state="rrrrrryyy"/>
  </tlLogic>
  <tlLogic id="2245082337" type="static" programID="fixed_60" offset="0">
    <phase duration="60" state="rrrGGGrrr"/>
    <phase duration="3" state="rrryyyrrr"/>
    <phase duration="60" state="GGGrrrrrr"/>
    <phase duration="3" state="yyyrrrrrr"/>
    <phase duration="60" state="rrrrrrGGG"/>
    <phase duration="3" state="rrrrrryyy"/>
  </tlLogic>
  <tlLogic id="2245082337" type="static" programID="rl_program" offset="0">
    <phase duration="10" state="rrrGGGrrr"/>
    <phase duration="3" state="rrryyyrrr"/>
    <phase duration="10" state="GGGrrrrrr"/>
    <phase duration="3" state="yyyrrrrrr"/>
    <phase duration="10" state="rrrrrrGGG"/>
    <phase duration="3" state="rrrrrryyy"/>
  </tlLogic>
  <tlLogic id="2245082345" type="static" programID="fixed_60" offset="0">
    <phase duration="60" state="GGGrrrrrr"/>
    <phase duration="3" state="yyyrrrrrr"/>
    <phase duration="60" state="rrrGGGrrr"/>
    <phase duration="3" state="rrryyyrrr"/>
    <phase duration="60" state="rrrrrrGGG"/>
    <phase duration="3" state="rrrrrryyy"/>
  </tlLogic>
  <tlLogic id="2245082345" type="static" programID="rl_program" offset="0">
    <phase duration="10" state="GGGrrrrrr"/>
    <phase duration="3" state="yyyrrrrrr"/>
    <phase duration="10" state="rrrGGGrrr"/>
    <phase duration="3" state="rrryyyrrr"/>
    <phase duration="10" state="rrrrrrGGG"/>
    <phase duration="3" state="rrrrrryyy"/>
  </tlLogic>
  <tlLogic id="2245082350" type="static" programID="fixed_60" offset="0">
    <phase duration="60" state="rrrrGGGGrrrrrrrr"/>
    <phase duration="3" state="rrrryyyyrrrrrrrr"/>
    <phase duration="60" state="rrrrrrrrGGGGrrrr"/>
    <phase duration="3" state="rrrrrrrryyyyrrrr"/>
    <phase duration="60" state="rrrrrrrrrrrrGGGG"/>
    <phase duration="3" state="rrrrrrrrrrrryyyy"/>
    <phase duration="60" state="GGGGrrrrrrrrrrrr"/>
    <phase duration="3" state="yyyyrrrrrrrrrrrr"/>
  </tlLogic>
  <tlLogic id="2245082350" type="static" programID="rl_program" offset="0">
    <phase duration="10" state="rrrrGGGGrrrrrrrr"/>
    <phase duration="3" state="rrrryyyyrrrrrrrr"/>
    <phase duration="10" state="rrrrrrrrGGGGrrrr"/>
    <phase duration="3" state="rrrrrrrryyyyrrrr"/>
    <phase duration="10" state="rrrrrrrrrrrrGGGG"/>
    <phase duration="3" state="rrrrrrrrrrrryyyy"/>
    <phase duration="10" state="GGGGrrrrrrrrrrrr"/>
    <phase duration="3" state="yyyyrrrrrrrrrrrr"/>
  </tlLogic>
  <tlLogic id="2245082362" type="static" programID="fixed_60" offset="0">
    <phase duration="60" state="GGGrrrrrr"/>
    <phase duration="3" state="yyyrrrrrr"/>
    <phase duration="60" state="rrrrrrGGG"/>
    <phase duration="3" state="rrrrrryyy"/>
    <phase duration="60" state="rrrGGGrrr"/>
    <phase duration="3" state="rrryyyrrr"/>
  </tlLogic>
  <tlLogic id="2245082362" type="static" programID="rl_program" offset="0">
    <phase duration="10" state="GGGrrrrrr"/>
    <phase duration="3" state="yyyrrrrrr"/>
    <phase duration="10" state="rrrrrrGGG"/>
    <phase duration="3" state="rrrrrryyy"/>
    <phase duration="10" state="rrrGGGrrr"/>
    <phase duration="3" state="rrryyyrrr"/>
  </tlLogic>
  <tlLogic id="2245082395" type="static" programID="fixed_60" offset="0">
    <phase duration="60" state="GGGrrrrrr"/>
    <phase duration="3" state="yyyrrrrrr"/>
    <phase duration="60" state="rrrrrrGGG"/>
    <phase duration="3" state="rrrrrryyy"/>
    <phase duration="60" state="rrrGGGrrr"/>
    <phase duration="3" state="rrryyyrrr"/>
  </tlLogic>
  <tlLogic id="2245082395" type="static" programID="rl_program" offset="0">
    <phase duration="10" state="GGGrrrrrr"/>
    <phase duration="3" state="yyyrrrrrr"/>
    <phase duration="10" state="rrrrrrGGG"/>
    <phase duration="3" state="rrrrrryyy"/>
    <phase duration="10" state="rrrGGGrrr"/>
    <phase duration="3" state="rrryyyrrr"/>
  </tlLogic>
  <tlLogic id="2245082421" type="static" programID="fixed_60" offset="0">
    <phase duration="60" state="rrrrrrrrrrrrGGGG"/>
    <phase duration="3" state="rrrrrrrrrrrryyyy"/>
    <phase duration="60" state="rrrrGGGGrrrrrrrr"/>
    <phase duration="3" state="rrrryyyyrrrrrrrr"/>
    <phase duration="60" state="rrrrrrrrGGGGrrrr"/>
    <phase duration="3" state="rrrrrrrryyyyrrrr"/>
    <phase duration="60" state="GGGGrrrrrrrrrrrr"/>
    <phase duration="3" state="yyyyrrrrrrrrrrrr"/>
  </tlLogic>
  <tlLogic id="2245082421" type="static" programID="rl_program" offset="0">
    <phase duration="10" state="rrrrrrrrrrrrGGGG"/>
    <phase duration="3" state="rrrrrrrrrrrryyyy"/>
    <phase duration="10" state="rrrrGGGGrrrrrrrr"/>
    <phase duration="3" state="rrrryyyyrrrrrrrr"/>
    <phase duration="10" state="rrrrrrrrGGGGrrrr"/>
    <phase duration="3" state="rrrrrrrryyyyrrrr"/>
    <phase duration="10" state="GGGGrrrrrrrrrrrr"/>
    <phase duration="3" state="yyyyrrrrrrrrrrrr"/>
  </tlLogic>
  <tlLogic id="2245082429" type="static" programID="fixed_60" offset="0">
    <phase duration="60" state="GGGrrrrrr"/>
    <phase duration="3" state="yyyrrrrrr"/>
    <phase duration="60" state="rrrGGGrrr"/>
    <phase duration="3" state="rrryyyrrr"/>
    <phase duration="60" state="rrrrrrGGG"/>
    <phase duration="3" state="rrrrrryyy"/>
  </tlLogic>
  <tlLogic id="2245082429" type="static" programID="rl_program" offset="0">
    <phase duration="10" state="GGGrrrrrr"/>
    <phase duration="3" state="yyyrrrrrr"/>
    <phase duration="10" state="rrrGGGrrr"/>
    <phase duration="3" state="rrryyyrrr"/>
    <phase duration="10" state="rrrrrrGGG"/>
    <phase duration="3" state="rrrrrryyy"/>
  </tlLogic>
  <tlLogic id="2245082502" type="static" programID="fixed_60" offset="0">
    <phase duration="60" state="GGGrrrrrr"/>
    <phase duration="3" state="yyyrrrrrr"/>
    <phase duration="60" state="rrrGGGrrr"/>
    <phase duration="3" state="rrryyyrrr"/>
    <phase duration="60" state="rrrrrrGGG"/>
    <phase duration="3" state="rrrrrryyy"/>
  </tlLogic>
  <tlLogic id="2245082502" type="static" programID="rl_program" offset="0">
    <phase duration="10" state="GGGrrrrrr"/>
    <phase duration="3" state="yyyrrrrrr"/>
    <phase duration="10" state="rrrGGGrrr"/>
    <phase duration="3" state="rrryyyrrr"/>
    <phase duration="10" state="rrrrrrGGG"/>
    <phase duration="3" state="rrrrrryyy"/>
  </tlLogic>
  <tlLogic id="2245082504" type="static" programID="fixed_60" offset="0">
    <phase duration="60" state="rrrrrrGGG"/>
    <phase duration="3" state="rrrrrryyy"/>
    <phase duration="60" state="rrrGGGrrr"/>
    <phase duration="3" state="rrryyyrrr"/>
    <phase duration="60" state="GGGrrrrrr"/>
    <phase duration="3" state="yyyrrrrrr"/>
  </tlLogic>
  <tlLogic id="2245082504" type="static" programID="rl_program" offset="0">
    <phase duration="10" state="rrrrrrGGG"/>
    <phase duration="3" state="rrrrrryyy"/>
    <phase duration="10" state="rrrGGGrrr"/>
    <phase duration="3" state="rrryyyrrr"/>
    <phase duration="10" state="GGGrrrrrr"/>
    <phase duration="3" state="yyyrrrrrr"/>
  </tlLogic>
  <tlLogic id="2245082515" type="static" programID="fixed_60" offset="0">
    <phase duration="60" state="rrrGGGrrr"/>
    <phase duration="3" state="rrryyyrrr"/>
    <phase duration="60" state="GGGrrrrrr"/>
    <phase duration="3" state="yyyrrrrrr"/>
    <phase duration="60" state="rrrrrrGGG"/>
    <phase duration="3" state="rrrrrryyy"/>
  </tlLogic>
  <tlLogic id="2245082515" type="static" programID="rl_program" offset="0">
    <phase duration="10" state="rrrGGGrrr"/>
    <phase duration="3" state="rrryyyrrr"/>
    <phase duration="10" state="GGGrrrrrr"/>
    <phase duration="3" state="yyyrrrrrr"/>
    <phase duration="10" state="rrrrrrGGG"/>
    <phase duration="3" state="rrrrrryyy"/>
  </tlLogic>
  <tlLogic id="2245082518" type="static" programID="fixed_60" offset="0">
    <phase duration="60" state="rrrrrrrrrrrrGGGG"/>
    <phase duration="3" state="rrrrrrrrrrrryyyy"/>
    <phase duration="60" state="GGGGrrrrrrrrrrrr"/>
    <phase duration="3" state="yyyyrrrrrrrrrrrr"/>
    <phase duration="60" state="rrrrrrrrGGGGrrrr"/>
    <phase duration="3" state="rrrrrrrryyyyrrrr"/>
    <phase duration="60" state="rrrrGGGGrrrrrrrr"/>
    <phase duration="3" state="rrrryyyyrrrrrrrr"/>
  </tlLogic>
  <tlLogic id="2245082518" type="static" programID="rl_program" offset="0">
    <phase duration="10" state="rrrrrrrrrrrrGGGG"/>
    <phase duration="3" state="rrrrrrrrrrrryyyy"/>
    <phase duration="10" state="GGGGrrrrrrrrrrrr"/>
    <phase duration="3" state="yyyyrrrrrrrrrrrr"/>
    <phase duration="10" state="rrrrrrrrGGGGrrrr"/>
    <phase duration="3" state="rrrrrrrryyyyrrrr"/>
    <phase duration="10" state="rrrrGGGGrrrrrrrr"/>
    <phase duration="3" state="rrrryyyyrrrrrrrr"/>
  </tlLogic>
  <tlLogic id="2245082547" type="static" programID="fixed_60" offset="0">
    <phase duration="60" state="rrrGGGrrr"/>
    <phase duration="3" state="rrryyyrrr"/>
    <phase duration="60" state="rrrrrrGGG"/>
    <phase duration="3" state="rrrrrryyy"/>
    <phase duration="60" state="GGGrrrrrr"/>
    <phase duration="3" state="yyyrrrrrr"/>
  </tlLogic>
  <tlLogic id="2245082547" type="static" programID="rl_program" offset="0">
    <phase duration="10" state="rrrGGGrrr"/>